*SPEF "ieee 1481-1999"
*DESIGN "adder"
*DATE "04:44:01 Monday April 21, 2025"
*VENDOR "The OpenROAD Project"
*PROGRAM "OpenROAD"
*VERSION "b16bda7e82721d10566ff7e2b68f1ff0be9f9e38"
*DESIGN_FLOW "NAME_SCOPE LOCAL" "PIN_CAP NONE"
*DIVIDER /
*DELIMITER :
*BUS_DELIMITER []
*T_UNIT 1 NS
*C_UNIT 1 PF
*R_UNIT 1 OHM
*L_UNIT 1 HENRY

*NAME_MAP
*3 a1
*4 a10
*5 a11
*6 a12
*7 a13
*8 a14
*9 a15
*10 a16
*11 a2
*12 a3
*13 a4
*14 a5
*15 a6
*16 a7
*17 a8
*18 a9
*19 b1
*20 b10
*21 b11
*22 b12
*23 b13
*24 b14
*25 b15
*26 b16
*27 b2
*28 b3
*29 b4
*30 b5
*31 b6
*32 b7
*33 b8
*34 b9
*35 cin
*36 clk
*37 cout
*38 s1
*39 s10
*40 s11
*41 s12
*42 s13
*43 s14
*44 s15
*45 s16
*46 s2
*47 s3
*48 s4
*49 s5
*50 s6
*51 s7
*52 s8
*53 s9
*54 _000_
*55 _001_
*56 _002_
*57 _003_
*58 _004_
*59 _005_
*60 _006_
*61 _007_
*62 _008_
*63 _009_
*64 _010_
*65 _011_
*66 _012_
*67 _013_
*68 _014_
*69 _015_
*70 _016_
*71 _017_
*72 _018_
*73 _019_
*74 _020_
*75 _021_
*76 _022_
*77 _023_
*78 _024_
*79 _025_
*80 _026_
*81 _027_
*82 _028_
*83 _029_
*84 _030_
*85 _031_
*86 _032_
*87 _033_
*88 _034_
*89 _035_
*90 _036_
*91 _037_
*92 _038_
*93 _039_
*94 _040_
*95 _041_
*96 _042_
*97 _043_
*98 _044_
*99 _045_
*100 _046_
*101 _047_
*102 _048_
*103 _049_
*104 _050_
*105 _051_
*106 _052_
*107 _053_
*108 _054_
*109 _055_
*110 _056_
*111 _057_
*112 _058_
*113 _059_
*114 clknet_0_clk
*115 clknet_2_0__leaf_clk
*116 clknet_2_1__leaf_clk
*117 clknet_2_2__leaf_clk
*118 clknet_2_3__leaf_clk
*119 net1
*120 net10
*121 net11
*122 net12
*123 net13
*124 net14
*125 net15
*126 net16
*127 net17
*128 net18
*129 net19
*130 net2
*131 net20
*132 net21
*133 net22
*134 net23
*135 net24
*136 net25
*137 net26
*138 net27
*139 net28
*140 net29
*141 net3
*142 net30
*143 net31
*144 net32
*145 net33
*146 net34
*147 net35
*148 net36
*149 net37
*150 net38
*151 net39
*152 net4
*153 net40
*154 net41
*155 net42
*156 net43
*157 net44
*158 net45
*159 net46
*160 net47
*161 net48
*162 net49
*163 net5
*164 net50
*165 net51
*166 net52
*167 net53
*168 net6
*169 net7
*170 net8
*171 net9
*172 x1\.a
*173 x1\.b
*174 x1\.cin
*175 x1\.sum
*176 x11\.a
*177 x11\.b
*178 x11\.sum
*179 x12\.a
*180 x12\.b
*181 x12\.sum
*182 x13\.a
*183 x13\.b
*184 x13\.sum
*185 x14\.a
*186 x14\.b
*187 x14\.sum
*188 x16\.a
*189 x16\.b
*190 x16\.sum
*191 x17\.a
*192 x17\.b
*193 x17\.sum
*194 x18\.a
*195 x18\.b
*196 x18\.sum
*197 x19\.a
*198 x19\.b
*199 x19\.sum
*200 x2\.a
*201 x2\.b
*202 x2\.sum
*203 x20\.out
*204 x23\.A
*205 x23\.B
*206 x24\.A
*207 x24\.B
*208 x25\.A
*209 x25\.B
*210 x26\.A
*211 x26\.B
*212 x27\.A
*213 x27\.B
*214 x28\.A
*215 x28\.B
*216 x3\.sum
*217 x4\.sum
*218 x6\.sum
*219 x7\.sum
*220 x8\.sum
*221 x9\.sum
*222 FILLER_0_0_104
*223 FILLER_0_0_108
*224 FILLER_0_0_113
*225 FILLER_0_0_118
*226 FILLER_0_0_124
*227 FILLER_0_0_128
*228 FILLER_0_0_18
*229 FILLER_0_0_24
*230 FILLER_0_0_29
*231 FILLER_0_0_38
*232 FILLER_0_0_44
*233 FILLER_0_0_48
*234 FILLER_0_0_60
*235 FILLER_0_0_64
*236 FILLER_0_0_68
*237 FILLER_0_0_74
*238 FILLER_0_0_78
*239 FILLER_0_0_88
*240 FILLER_0_0_94
*241 FILLER_0_0_98
*242 FILLER_0_10_111
*243 FILLER_0_10_123
*244 FILLER_0_10_135
*245 FILLER_0_10_26
*246 FILLER_0_10_29
*247 FILLER_0_10_37
*248 FILLER_0_10_50
*249 FILLER_0_10_6
*250 FILLER_0_10_62
*251 FILLER_0_10_83
*252 FILLER_0_10_99
*253 FILLER_0_11_107
*254 FILLER_0_11_28
*255 FILLER_0_11_3
*256 FILLER_0_11_39
*257 FILLER_0_11_51
*258 FILLER_0_11_55
*259 FILLER_0_11_73
*260 FILLER_0_11_94
*261 FILLER_0_12_12
*262 FILLER_0_12_134
*263 FILLER_0_12_29
*264 FILLER_0_12_48
*265 FILLER_0_12_6
*266 FILLER_0_12_60
*267 FILLER_0_12_85
*268 FILLER_0_13_110
*269 FILLER_0_13_19
*270 FILLER_0_13_31
*271 FILLER_0_13_43
*272 FILLER_0_13_55
*273 FILLER_0_13_6
*274 FILLER_0_13_73
*275 FILLER_0_14_11
*276 FILLER_0_14_122
*277 FILLER_0_14_131
*278 FILLER_0_14_135
*279 FILLER_0_14_3
*280 FILLER_0_14_32
*281 FILLER_0_14_44
*282 FILLER_0_14_63
*283 FILLER_0_14_75
*284 FILLER_0_14_85
*285 FILLER_0_14_95
*286 FILLER_0_15_101
*287 FILLER_0_15_109
*288 FILLER_0_15_120
*289 FILLER_0_15_132
*290 FILLER_0_15_17
*291 FILLER_0_15_28
*292 FILLER_0_15_52
*293 FILLER_0_15_73
*294 FILLER_0_15_85
*295 FILLER_0_15_9
*296 FILLER_0_16_109
*297 FILLER_0_16_121
*298 FILLER_0_16_133
*299 FILLER_0_16_21
*300 FILLER_0_16_27
*301 FILLER_0_16_29
*302 FILLER_0_16_3
*303 FILLER_0_16_41
*304 FILLER_0_16_53
*305 FILLER_0_16_65
*306 FILLER_0_16_85
*307 FILLER_0_16_97
*308 FILLER_0_17_105
*309 FILLER_0_17_111
*310 FILLER_0_17_113
*311 FILLER_0_17_129
*312 FILLER_0_17_135
*313 FILLER_0_17_18
*314 FILLER_0_17_30
*315 FILLER_0_17_57
*316 FILLER_0_17_6
*317 FILLER_0_17_69
*318 FILLER_0_17_81
*319 FILLER_0_17_93
*320 FILLER_0_18_101
*321 FILLER_0_18_134
*322 FILLER_0_18_20
*323 FILLER_0_18_3
*324 FILLER_0_18_45
*325 FILLER_0_18_57
*326 FILLER_0_18_69
*327 FILLER_0_18_81
*328 FILLER_0_19_113
*329 FILLER_0_19_117
*330 FILLER_0_19_134
*331 FILLER_0_19_29
*332 FILLER_0_19_37
*333 FILLER_0_19_57
*334 FILLER_0_19_79
*335 FILLER_0_19_89
*336 FILLER_0_19_9
*337 FILLER_0_19_97
*338 FILLER_0_1_103
*339 FILLER_0_1_111
*340 FILLER_0_1_113
*341 FILLER_0_1_117
*342 FILLER_0_1_134
*343 FILLER_0_1_20
*344 FILLER_0_1_3
*345 FILLER_0_1_48
*346 FILLER_0_1_57
*347 FILLER_0_1_69
*348 FILLER_0_1_91
*349 FILLER_0_20_11
*350 FILLER_0_20_29
*351 FILLER_0_20_3
*352 FILLER_0_20_35
*353 FILLER_0_21_105
*354 FILLER_0_21_111
*355 FILLER_0_21_113
*356 FILLER_0_21_125
*357 FILLER_0_21_133
*358 FILLER_0_21_23
*359 FILLER_0_21_29
*360 FILLER_0_21_46
*361 FILLER_0_21_54
*362 FILLER_0_21_57
*363 FILLER_0_21_6
*364 FILLER_0_21_69
*365 FILLER_0_21_73
*366 FILLER_0_21_93
*367 FILLER_0_22_104
*368 FILLER_0_22_108
*369 FILLER_0_22_113
*370 FILLER_0_22_118
*371 FILLER_0_22_124
*372 FILLER_0_22_128
*373 FILLER_0_22_23
*374 FILLER_0_22_3
*375 FILLER_0_22_32
*376 FILLER_0_22_38
*377 FILLER_0_22_44
*378 FILLER_0_22_48
*379 FILLER_0_22_60
*380 FILLER_0_22_64
*381 FILLER_0_22_68
*382 FILLER_0_22_74
*383 FILLER_0_22_78
*384 FILLER_0_22_88
*385 FILLER_0_22_94
*386 FILLER_0_22_98
*387 FILLER_0_2_134
*388 FILLER_0_2_29
*389 FILLER_0_2_3
*390 FILLER_0_2_35
*391 FILLER_0_2_85
*392 FILLER_0_3_107
*393 FILLER_0_3_111
*394 FILLER_0_3_113
*395 FILLER_0_3_117
*396 FILLER_0_3_134
*397 FILLER_0_3_3
*398 FILLER_0_3_39
*399 FILLER_0_3_51
*400 FILLER_0_3_55
*401 FILLER_0_3_57
*402 FILLER_0_3_65
*403 FILLER_0_3_83
*404 FILLER_0_3_95
*405 FILLER_0_4_109
*406 FILLER_0_4_121
*407 FILLER_0_4_133
*408 FILLER_0_4_23
*409 FILLER_0_4_27
*410 FILLER_0_4_45
*411 FILLER_0_4_57
*412 FILLER_0_4_6
*413 FILLER_0_4_69
*414 FILLER_0_4_81
*415 FILLER_0_4_85
*416 FILLER_0_4_97
*417 FILLER_0_5_102
*418 FILLER_0_5_110
*419 FILLER_0_5_113
*420 FILLER_0_5_125
*421 FILLER_0_5_133
*422 FILLER_0_5_24
*423 FILLER_0_5_36
*424 FILLER_0_5_53
*425 FILLER_0_5_6
*426 FILLER_0_5_64
*427 FILLER_0_5_90
*428 FILLER_0_6_108
*429 FILLER_0_6_120
*430 FILLER_0_6_132
*431 FILLER_0_6_27
*432 FILLER_0_6_29
*433 FILLER_0_6_3
*434 FILLER_0_6_35
*435 FILLER_0_6_79
*436 FILLER_0_6_83
*437 FILLER_0_7_129
*438 FILLER_0_7_135
*439 FILLER_0_7_18
*440 FILLER_0_7_30
*441 FILLER_0_7_46
*442 FILLER_0_7_54
*443 FILLER_0_7_6
*444 FILLER_0_7_63
*445 FILLER_0_7_91
*446 FILLER_0_8_106
*447 FILLER_0_8_118
*448 FILLER_0_8_130
*449 FILLER_0_8_14
*450 FILLER_0_8_26
*451 FILLER_0_8_29
*452 FILLER_0_8_3
*453 FILLER_0_8_54
*454 FILLER_0_8_66
*455 FILLER_0_8_78
*456 FILLER_0_8_85
*457 FILLER_0_8_89
*458 FILLER_0_9_105
*459 FILLER_0_9_111
*460 FILLER_0_9_113
*461 FILLER_0_9_125
*462 FILLER_0_9_133
*463 FILLER_0_9_18
*464 FILLER_0_9_30
*465 FILLER_0_9_45
*466 FILLER_0_9_53
*467 FILLER_0_9_57
*468 FILLER_0_9_6
*469 FILLER_0_9_69
*470 FILLER_0_9_81
*471 FILLER_0_9_93
*472 PHY_EDGE_ROW_0_Left_23
*473 PHY_EDGE_ROW_0_Right_0
*474 PHY_EDGE_ROW_10_Left_33
*475 PHY_EDGE_ROW_10_Right_10
*476 PHY_EDGE_ROW_11_Left_34
*477 PHY_EDGE_ROW_11_Right_11
*478 PHY_EDGE_ROW_12_Left_35
*479 PHY_EDGE_ROW_12_Right_12
*480 PHY_EDGE_ROW_13_Left_36
*481 PHY_EDGE_ROW_13_Right_13
*482 PHY_EDGE_ROW_14_Left_37
*483 PHY_EDGE_ROW_14_Right_14
*484 PHY_EDGE_ROW_15_Left_38
*485 PHY_EDGE_ROW_15_Right_15
*486 PHY_EDGE_ROW_16_Left_39
*487 PHY_EDGE_ROW_16_Right_16
*488 PHY_EDGE_ROW_17_Left_40
*489 PHY_EDGE_ROW_17_Right_17
*490 PHY_EDGE_ROW_18_Left_41
*491 PHY_EDGE_ROW_18_Right_18
*492 PHY_EDGE_ROW_19_Left_42
*493 PHY_EDGE_ROW_19_Right_19
*494 PHY_EDGE_ROW_1_Left_24
*495 PHY_EDGE_ROW_1_Right_1
*496 PHY_EDGE_ROW_20_Left_43
*497 PHY_EDGE_ROW_20_Right_20
*498 PHY_EDGE_ROW_21_Left_44
*499 PHY_EDGE_ROW_21_Right_21
*500 PHY_EDGE_ROW_22_Left_45
*501 PHY_EDGE_ROW_22_Right_22
*502 PHY_EDGE_ROW_2_Left_25
*503 PHY_EDGE_ROW_2_Right_2
*504 PHY_EDGE_ROW_3_Left_26
*505 PHY_EDGE_ROW_3_Right_3
*506 PHY_EDGE_ROW_4_Left_27
*507 PHY_EDGE_ROW_4_Right_4
*508 PHY_EDGE_ROW_5_Left_28
*509 PHY_EDGE_ROW_5_Right_5
*510 PHY_EDGE_ROW_6_Left_29
*511 PHY_EDGE_ROW_6_Right_6
*512 PHY_EDGE_ROW_7_Left_30
*513 PHY_EDGE_ROW_7_Right_7
*514 PHY_EDGE_ROW_8_Left_31
*515 PHY_EDGE_ROW_8_Right_8
*516 PHY_EDGE_ROW_9_Left_32
*517 PHY_EDGE_ROW_9_Right_9
*518 TAP_TAPCELL_ROW_0_46
*519 TAP_TAPCELL_ROW_0_47
*520 TAP_TAPCELL_ROW_0_48
*521 TAP_TAPCELL_ROW_0_49
*522 TAP_TAPCELL_ROW_10_68
*523 TAP_TAPCELL_ROW_10_69
*524 TAP_TAPCELL_ROW_11_70
*525 TAP_TAPCELL_ROW_11_71
*526 TAP_TAPCELL_ROW_12_72
*527 TAP_TAPCELL_ROW_12_73
*528 TAP_TAPCELL_ROW_13_74
*529 TAP_TAPCELL_ROW_13_75
*530 TAP_TAPCELL_ROW_14_76
*531 TAP_TAPCELL_ROW_14_77
*532 TAP_TAPCELL_ROW_15_78
*533 TAP_TAPCELL_ROW_15_79
*534 TAP_TAPCELL_ROW_16_80
*535 TAP_TAPCELL_ROW_16_81
*536 TAP_TAPCELL_ROW_17_82
*537 TAP_TAPCELL_ROW_17_83
*538 TAP_TAPCELL_ROW_18_84
*539 TAP_TAPCELL_ROW_18_85
*540 TAP_TAPCELL_ROW_19_86
*541 TAP_TAPCELL_ROW_19_87
*542 TAP_TAPCELL_ROW_1_50
*543 TAP_TAPCELL_ROW_1_51
*544 TAP_TAPCELL_ROW_20_88
*545 TAP_TAPCELL_ROW_20_89
*546 TAP_TAPCELL_ROW_21_90
*547 TAP_TAPCELL_ROW_21_91
*548 TAP_TAPCELL_ROW_22_92
*549 TAP_TAPCELL_ROW_22_93
*550 TAP_TAPCELL_ROW_22_94
*551 TAP_TAPCELL_ROW_22_95
*552 TAP_TAPCELL_ROW_2_52
*553 TAP_TAPCELL_ROW_2_53
*554 TAP_TAPCELL_ROW_3_54
*555 TAP_TAPCELL_ROW_3_55
*556 TAP_TAPCELL_ROW_4_56
*557 TAP_TAPCELL_ROW_4_57
*558 TAP_TAPCELL_ROW_5_58
*559 TAP_TAPCELL_ROW_5_59
*560 TAP_TAPCELL_ROW_6_60
*561 TAP_TAPCELL_ROW_6_61
*562 TAP_TAPCELL_ROW_7_62
*563 TAP_TAPCELL_ROW_7_63
*564 TAP_TAPCELL_ROW_8_64
*565 TAP_TAPCELL_ROW_8_65
*566 TAP_TAPCELL_ROW_9_66
*567 TAP_TAPCELL_ROW_9_67
*568 _060_
*569 _061_
*570 _062_
*571 _063_
*572 _064_
*573 _065_
*574 _066_
*575 _067_
*576 _068_
*577 _069_
*578 _070_
*579 _071_
*580 _072_
*581 _073_
*582 _074_
*583 _075_
*584 _076_
*585 _077_
*586 _078_
*587 _079_
*588 _080_
*589 _081_
*590 _082_
*591 _083_
*592 _084_
*593 _085_
*594 _086_
*595 _087_
*596 _088_
*597 _089_
*598 _090_
*599 _091_
*600 _092_
*601 _093_
*602 _094_
*603 _095_
*604 _096_
*605 _097_
*606 _098_
*607 _099_
*608 _100_
*609 _101_
*610 _102_
*611 _103_
*612 _104_
*613 _105_
*614 _106_
*615 _107_
*616 _108_
*617 _109_
*618 _110_
*619 _111_
*620 _112_
*621 _113_
*622 _114_
*623 _115_
*624 _116_
*625 _117_
*626 _118_
*627 _119_
*628 _120_
*629 _121_
*630 _122_
*631 _123_
*632 _124_
*633 _125_
*634 _126_
*635 _127_
*636 _128_
*637 _129_
*638 _130_
*639 _131_
*640 _132_
*641 _133_
*642 _134_
*643 _135_
*644 _136_
*645 _137_
*646 _138_
*647 _139_
*648 _140_
*649 _141_
*650 _142_
*651 _143_
*652 _144_
*653 _145_
*654 _146_
*655 _147_
*656 _148_
*657 _149_
*658 _150_
*659 _151_
*660 _152_
*661 _153_
*662 _154_
*663 _155_
*664 _156_
*665 _157_
*666 _158_
*667 _159_
*668 _160_
*669 _161_
*670 _162_
*671 _163_
*672 _164_
*673 _165_
*674 _166_
*675 _167_
*676 _168_
*677 _169_
*678 _170_
*679 _171_
*680 _172_
*681 _173_
*682 _174_
*683 _175_
*684 _176_
*685 _177_
*686 _178_
*687 _179_
*688 _180_
*689 _181_
*690 _182_
*691 _183_
*692 _184_
*693 _185_
*694 _186_
*695 clkbuf_0_clk
*696 clkbuf_2_0__f_clk
*697 clkbuf_2_1__f_clk
*698 clkbuf_2_2__f_clk
*699 clkbuf_2_3__f_clk
*700 clkload0
*701 clkload1
*702 clkload2
*703 input1
*704 input10
*705 input11
*706 input12
*707 input13
*708 input14
*709 input15
*710 input16
*711 input17
*712 input18
*713 input19
*714 input2
*715 input20
*716 input21
*717 input22
*718 input23
*719 input24
*720 input25
*721 input26
*722 input27
*723 input28
*724 input29
*725 input3
*726 input30
*727 input31
*728 input32
*729 input33
*730 input4
*731 input5
*732 input6
*733 input7
*734 input8
*735 input9
*736 output34
*737 output35
*738 output36
*739 output37
*740 output38
*741 output39
*742 output40
*743 output41
*744 output42
*745 output43
*746 output44
*747 output45
*748 output46
*749 output47
*750 output48
*751 output49
*752 output50
*753 rebuffer1
*754 rebuffer2
*755 rebuffer3

*PORTS
a1 I
a10 I
a11 I
a12 I
a13 I
a14 I
a15 I
a16 I
a2 I
a3 I
a4 I
a5 I
a6 I
a7 I
a8 I
a9 I
b1 I
b10 I
b11 I
b12 I
b13 I
b14 I
b15 I
b16 I
b2 I
b3 I
b4 I
b5 I
b6 I
b7 I
b8 I
b9 I
cin I
clk I
cout O
s1 O
s10 O
s11 O
s12 O
s13 O
s14 O
s15 O
s16 O
s2 O
s3 O
s4 O
s5 O
s6 O
s7 O
s8 O
s9 O

*D_NET *3 0.00213833
*CONN
*P a1 I
*I *703:A I *D sky130_fd_sc_hd__clkbuf_1
*CAP
1 a1 0.00104528
2 *703:A 0.00104528
3 *703:A s15 0
4 *703:A *735:A 4.77807e-05
*RES
1 a1 *703:A 21.495 
*END

*D_NET *4 0.00108185
*CONN
*P a10 I
*I *714:A I *D sky130_fd_sc_hd__clkbuf_1
*CAP
1 a10 0.0005275
2 *714:A 0.0005275
3 *714:A *663:D 2.68526e-05
4 *714:A *710:A 0
*RES
1 a10 *714:A 12.825 
*END

*D_NET *5 0.000964449
*CONN
*P a11 I
*I *725:A I *D sky130_fd_sc_hd__clkbuf_1
*CAP
1 a11 0.000482224
2 *725:A 0.000482224
*RES
1 a11 *725:A 12.135 
*END

*D_NET *6 0.00103814
*CONN
*P a12 I
*I *730:A I *D sky130_fd_sc_hd__clkbuf_1
*CAP
1 a12 0.000506813
2 *730:A 0.000506813
3 *730:A *675:D 2.45182e-05
4 *730:A *731:A 0
*RES
1 a12 *730:A 12.825 
*END

*D_NET *7 0.000966289
*CONN
*P a13 I
*I *731:A I *D sky130_fd_sc_hd__clkbuf_1
*CAP
1 a13 0.000483144
2 *731:A 0.000483144
3 *731:A *675:D 0
4 *731:A *732:A 0
5 *730:A *731:A 0
*RES
1 a13 *731:A 12.135 
*END

*D_NET *8 0.00096762
*CONN
*P a14 I
*I *732:A I *D sky130_fd_sc_hd__clkbuf_1
*CAP
1 a14 0.00048381
2 *732:A 0.00048381
3 *732:A *733:A 0
4 *731:A *732:A 0
*RES
1 a14 *732:A 12.135 
*END

*D_NET *9 0.000967621
*CONN
*P a15 I
*I *733:A I *D sky130_fd_sc_hd__clkbuf_1
*CAP
1 a15 0.00048381
2 *733:A 0.00048381
3 *733:A *734:A 0
4 *732:A *733:A 0
*RES
1 a15 *733:A 12.135 
*END

*D_NET *10 0.00146732
*CONN
*P a16 I
*I *734:A I *D sky130_fd_sc_hd__clkbuf_1
*CAP
1 a16 0.0007247
2 *734:A 0.0007247
3 *734:A *673:D 1.79174e-05
4 *733:A *734:A 0
*RES
1 a16 *734:A 16.035 
*END

*D_NET *11 0.00160238
*CONN
*P a2 I
*I *735:A I *D sky130_fd_sc_hd__clkbuf_1
*CAP
1 a2 0.000637708
2 *735:A 0.000637708
3 *735:A s15 0.000103238
4 *735:A s16 0.000162981
5 *735:A *647:D 1.2961e-05
6 *735:A *704:A 0
7 *703:A *735:A 4.77807e-05
*RES
1 a2 *735:A 16.215 
*END

*D_NET *12 0.00157852
*CONN
*P a3 I
*I *704:A I *D sky130_fd_sc_hd__clkbuf_1
*CAP
1 a3 0.000676835
2 *704:A 0.000676835
3 *704:A *647:CLK 0.000196669
4 *704:A *200:18 2.8185e-05
5 *735:A *704:A 0
*RES
1 a3 *704:A 15.165 
*END

*D_NET *13 0.000979384
*CONN
*P a4 I
*I *705:A I *D sky130_fd_sc_hd__clkbuf_1
*CAP
1 a4 0.000489692
2 *705:A 0.000489692
3 *705:A cout 0
4 *705:A *200:18 0
*RES
1 a4 *705:A 12.135 
*END

*D_NET *14 0.00103842
*CONN
*P a5 I
*I *706:A I *D sky130_fd_sc_hd__clkbuf_1
*CAP
1 a5 0.000519209
2 *706:A 0.000519209
3 *706:A cout 0
4 *706:A *707:A 0
5 *706:A *736:A 0
*RES
1 a5 *706:A 12.825 
*END

*D_NET *15 0.00103451
*CONN
*P a6 I
*I *707:A I *D sky130_fd_sc_hd__clkbuf_1
*CAP
1 a6 0.000517257
2 *707:A 0.000517257
3 *707:A *708:A 0
4 *706:A *707:A 0
*RES
1 a6 *707:A 12.825 
*END

*D_NET *16 0.00118893
*CONN
*P a7 I
*I *708:A I *D sky130_fd_sc_hd__clkbuf_1
*CAP
1 a7 0.000570192
2 *708:A 0.000570192
3 *708:A *657:D 4.85428e-05
4 *707:A *708:A 0
*RES
1 a7 *708:A 13.515 
*END

*D_NET *17 0.000958501
*CONN
*P a8 I
*I *709:A I *D sky130_fd_sc_hd__clkbuf_1
*CAP
1 a8 0.000479251
2 *709:A 0.000479251
*RES
1 a8 *709:A 12.135 
*END

*D_NET *18 0.00103451
*CONN
*P a9 I
*I *710:A I *D sky130_fd_sc_hd__clkbuf_1
*CAP
1 a9 0.000517257
2 *710:A 0.000517257
3 *714:A *710:A 0
*RES
1 a9 *710:A 12.825 
*END

*D_NET *19 0.00160294
*CONN
*P b1 I
*I *711:A I *D sky130_fd_sc_hd__clkbuf_1
*CAP
1 b1 0.000675423
2 *711:A 0.000675423
3 *711:A s1 0.000141467
4 *711:A *646:D 5.30673e-05
5 *711:A *650:D 7.00889e-06
6 *711:A *720:A 5.05521e-05
*RES
1 b1 *711:A 16.485 
*END

*D_NET *20 0.000884146
*CONN
*P b10 I
*I *712:A I *D sky130_fd_sc_hd__clkbuf_1
*CAP
1 b10 0.00043319
2 *712:A 0.00043319
3 *712:A *664:D 1.77665e-05
4 *712:A *713:A 0
5 *712:A *728:A 0
*RES
1 b10 *712:A 11.04 
*END

*D_NET *21 0.000879544
*CONN
*P b11 I
*I *713:A I *D sky130_fd_sc_hd__clkbuf_1
*CAP
1 b11 0.000439772
2 *713:A 0.000439772
3 *713:A *715:A 0
4 *712:A *713:A 0
*RES
1 b11 *713:A 11.25 
*END

*D_NET *22 0.000877785
*CONN
*P b12 I
*I *715:A I *D sky130_fd_sc_hd__clkbuf_1
*CAP
1 b12 0.000438892
2 *715:A 0.000438892
3 *715:A *716:A 0
4 *713:A *715:A 0
*RES
1 b12 *715:A 11.04 
*END

*D_NET *23 0.000786235
*CONN
*P b13 I
*I *716:A I *D sky130_fd_sc_hd__clkbuf_1
*CAP
1 b13 0.000393118
2 *716:A 0.000393118
3 *716:A *717:A 0
4 *715:A *716:A 0
*RES
1 b13 *716:A 10.35 
*END

*D_NET *24 0.000786235
*CONN
*P b14 I
*I *717:A I *D sky130_fd_sc_hd__clkbuf_1
*CAP
1 b14 0.000393118
2 *717:A 0.000393118
3 *717:A *718:A 0
4 *716:A *717:A 0
*RES
1 b14 *717:A 10.35 
*END

*D_NET *25 0.000833432
*CONN
*P b15 I
*I *718:A I *D sky130_fd_sc_hd__clkbuf_1
*CAP
1 b15 0.000390745
2 *718:A 0.000390745
3 *718:A *674:D 3.64998e-06
4 *718:A *719:A 4.82919e-05
5 *717:A *718:A 0
*RES
1 b15 *718:A 10.35 
*END

*D_NET *26 0.00132884
*CONN
*P b16 I
*I *719:A I *D sky130_fd_sc_hd__clkbuf_1
*CAP
1 b16 0.000632381
2 *719:A 0.000632381
3 *719:A *674:D 1.17309e-05
4 *719:A *676:D 4.05674e-06
5 *718:A *719:A 4.82919e-05
*RES
1 b16 *719:A 14.25 
*END

*D_NET *27 0.000917669
*CONN
*P b2 I
*I *720:A I *D sky130_fd_sc_hd__clkbuf_1
*CAP
1 b2 0.000390261
2 *720:A 0.000390261
3 *720:A s1 8.65961e-05
4 *720:A *721:A 0
5 *711:A *720:A 5.05521e-05
*RES
1 b2 *720:A 10.8 
*END

*D_NET *28 0.000892319
*CONN
*P b3 I
*I *721:A I *D sky130_fd_sc_hd__clkbuf_1
*CAP
1 b3 0.000439786
2 *721:A 0.000439786
3 *721:A *650:D 3.64998e-06
4 *721:A *722:A 0
5 *721:A *737:A 9.09788e-06
6 *720:A *721:A 0
*RES
1 b3 *721:A 11.25 
*END

*D_NET *29 0.00099823
*CONN
*P b4 I
*I *722:A I *D sky130_fd_sc_hd__clkbuf_1
*CAP
1 b4 0.000499115
2 *722:A 0.000499115
3 *722:A *723:A 0
4 *721:A *722:A 0
*RES
1 b4 *722:A 13.17 
*END

*D_NET *30 0.000880284
*CONN
*P b5 I
*I *723:A I *D sky130_fd_sc_hd__clkbuf_1
*CAP
1 b5 0.000440142
2 *723:A 0.000440142
3 *723:A *724:A 0
4 *722:A *723:A 0
*RES
1 b5 *723:A 11.04 
*END

*D_NET *31 0.000877785
*CONN
*P b6 I
*I *724:A I *D sky130_fd_sc_hd__clkbuf_1
*CAP
1 b6 0.000438892
2 *724:A 0.000438892
3 *724:A *726:A 0
4 *723:A *724:A 0
*RES
1 b6 *724:A 11.04 
*END

*D_NET *32 0.000990331
*CONN
*P b7 I
*I *726:A I *D sky130_fd_sc_hd__clkbuf_1
*CAP
1 b7 0.000477303
2 *726:A 0.000477303
3 *726:A *658:D 3.57254e-05
4 *726:A *727:A 0
5 *724:A *726:A 0
*RES
1 b7 *726:A 11.73 
*END

*D_NET *33 0.000786235
*CONN
*P b8 I
*I *727:A I *D sky130_fd_sc_hd__clkbuf_1
*CAP
1 b8 0.000393118
2 *727:A 0.000393118
3 *727:A *728:A 0
4 *726:A *727:A 0
*RES
1 b8 *727:A 10.35 
*END

*D_NET *34 0.000877785
*CONN
*P b9 I
*I *728:A I *D sky130_fd_sc_hd__clkbuf_1
*CAP
1 b9 0.000438892
2 *728:A 0.000438892
3 *712:A *728:A 0
4 *727:A *728:A 0
*RES
1 b9 *728:A 11.04 
*END

*D_NET *35 0.000801962
*CONN
*P cin I
*I *729:A I *D sky130_fd_sc_hd__buf_1
*CAP
1 cin 0.000357409
2 *729:A 0.000357409
3 *729:A *673:CLK 8.7143e-05
*RES
1 cin *729:A 7.45503 
*END

*D_NET *36 0.00753573
*CONN
*P clk I
*I *695:A I *D sky130_fd_sc_hd__clkbuf_16
*CAP
1 clk 0.00355544
2 *695:A 0.00355544
3 *695:A *607:B 0
4 *695:A *686:D 6.13525e-05
5 *695:A *699:A 2.88769e-05
6 *695:A *98:10 1.93765e-05
7 *695:A *100:10 9.54399e-05
8 *695:A *114:33 5.1844e-05
9 *695:A *176:10 2.33678e-05
10 *695:A *183:22 0
11 *695:A *192:20 0.000144586
*RES
1 clk *695:A 13.466 
*END

*D_NET *37 0.00186569
*CONN
*P cout O
*I *736:X O *D sky130_fd_sc_hd__buf_1
*CAP
1 cout 0.000932847
2 *736:X 0.000932847
3 cout s16 0
4 *705:A cout 0
5 *706:A cout 0
*RES
1 *736:X cout 7.8917 
*END

*D_NET *38 0.00127838
*CONN
*P s1 O
*I *737:X O *D sky130_fd_sc_hd__buf_1
*CAP
1 s1 0.000522628
2 *737:X 0.000522628
3 s1 s2 0
4 s1 *650:D 5.062e-06
5 *711:A s1 0.000141467
6 *720:A s1 8.65961e-05
*RES
1 *737:X s1 9.93697 
*END

*D_NET *39 0.00063564
*CONN
*P s10 O
*I *738:X O *D sky130_fd_sc_hd__buf_1
*CAP
1 s10 0.000312487
2 *738:X 0.000312487
3 s10 s11 5.33311e-06
4 s10 s9 5.33311e-06
*RES
1 *738:X s10 7.0893 
*END

*D_NET *40 0.0008614
*CONN
*P s11 O
*I *739:X O *D sky130_fd_sc_hd__buf_1
*CAP
1 s11 0.00039512
2 *739:X 0.00039512
3 s11 s12 1.68881e-05
4 s11 *740:A 4.89395e-05
5 s10 s11 5.33311e-06
*RES
1 *739:X s11 8.3793 
*END

*D_NET *41 0.000545035
*CONN
*P s12 O
*I *740:X O *D sky130_fd_sc_hd__buf_1
*CAP
1 s12 0.000258503
2 *740:X 0.000258503
3 s12 s13 1.11399e-05
4 s12 *204:12 0
5 s11 s12 1.68881e-05
*RES
1 *740:X s12 5.7485 
*END

*D_NET *42 0.000545804
*CONN
*P s13 O
*I *741:X O *D sky130_fd_sc_hd__buf_1
*CAP
1 s13 0.000267332
2 *741:X 0.000267332
3 s13 s14 0
4 s12 s13 1.11399e-05
*RES
1 *741:X s13 6.8343 
*END

*D_NET *43 0.000632528
*CONN
*P s14 O
*I *742:X O *D sky130_fd_sc_hd__buf_1
*CAP
1 s14 0.000311926
2 *742:X 0.000311926
3 s14 s15 8.67624e-06
4 s13 s14 0
*RES
1 *742:X s14 7.0893 
*END

*D_NET *44 0.000678517
*CONN
*P s15 O
*I *743:X O *D sky130_fd_sc_hd__buf_1
*CAP
1 s15 0.000283301
2 *743:X 0.000283301
3 s15 s16 0
4 s14 s15 8.67624e-06
5 *703:A s15 0
6 *735:A s15 0.000103238
*RES
1 *743:X s15 5.86677 
*END

*D_NET *45 0.00137976
*CONN
*P s16 O
*I *744:X O *D sky130_fd_sc_hd__buf_1
*CAP
1 s16 0.000453878
2 *744:X 0.000453878
3 s16 *645:D 3.89366e-05
4 s16 *647:D 0.000230833
5 s16 *204:12 3.9253e-05
6 cout s16 0
7 s15 s16 0
8 *735:A s16 0.000162981
*RES
1 *744:X s16 9.61157 
*END

*D_NET *46 0.000549599
*CONN
*P s2 O
*I *745:X O *D sky130_fd_sc_hd__buf_1
*CAP
1 s2 0.000259171
2 *745:X 0.000259171
3 s2 s3 0
4 s2 *745:A 3.12569e-05
5 s1 s2 0
*RES
1 *745:X s2 5.35677 
*END

*D_NET *47 0.00189681
*CONN
*P s3 O
*I *746:X O *D sky130_fd_sc_hd__buf_1
*CAP
1 s3 0.000948407
2 *746:X 0.000948407
3 s3 s4 0
4 s3 *652:D 0
5 s3 *115:52 0
6 s2 s3 0
*RES
1 *746:X s3 6.8573 
*END

*D_NET *48 0.00062256
*CONN
*P s4 O
*I *747:X O *D sky130_fd_sc_hd__buf_1
*CAP
1 s4 0.000305119
2 *747:X 0.000305119
3 s4 s5 1.23223e-05
4 s3 s4 0
*RES
1 *747:X s4 7.0893 
*END

*D_NET *49 0.000552817
*CONN
*P s5 O
*I *748:X O *D sky130_fd_sc_hd__buf_1
*CAP
1 s5 0.000270247
2 *748:X 0.000270247
3 s5 s6 0
4 s4 s5 1.23223e-05
*RES
1 *748:X s5 6.8343 
*END

*D_NET *50 0.000632528
*CONN
*P s6 O
*I *749:X O *D sky130_fd_sc_hd__buf_1
*CAP
1 s6 0.000311926
2 *749:X 0.000311926
3 s6 s7 8.67624e-06
4 s5 s6 0
*RES
1 *749:X s6 7.0893 
*END

*D_NET *51 0.000562537
*CONN
*P s7 O
*I *750:X O *D sky130_fd_sc_hd__buf_1
*CAP
1 s7 0.00027693
2 *750:X 0.00027693
3 s7 s8 0
4 s7 *628:A 0
5 s6 s7 8.67624e-06
*RES
1 *750:X s7 5.86677 
*END

*D_NET *52 0.00062148
*CONN
*P s8 O
*I *751:X O *D sky130_fd_sc_hd__buf_1
*CAP
1 s8 0.000308073
2 *751:X 0.000308073
3 s8 s9 5.33311e-06
4 s7 s8 0
*RES
1 *751:X s8 7.0893 
*END

*D_NET *53 0.000659624
*CONN
*P s9 O
*I *752:X O *D sky130_fd_sc_hd__buf_1
*CAP
1 s9 0.000324479
2 *752:X 0.000324479
3 s10 s9 5.33311e-06
4 s8 s9 5.33311e-06
*RES
1 *752:X s9 7.3443 
*END

*D_NET *54 0.00140974
*CONN
*I *617:B1 I *D sky130_fd_sc_hd__a21oi_2
*I *616:X O *D sky130_fd_sc_hd__and2b_1
*CAP
1 *617:B1 0.000486995
2 *616:X 0.000486995
3 *617:B1 *616:B 6.32225e-05
4 *617:B1 *633:B 0.000274892
5 *617:B1 *112:14 3.87166e-05
6 *617:B1 *145:22 5.89229e-05
*RES
1 *616:X *617:B1 13.86 
*END

*D_NET *55 0.0011481
*CONN
*I *619:A_N I *D sky130_fd_sc_hd__and2b_1
*I *618:B I *D sky130_fd_sc_hd__xnor2_1
*I *617:Y O *D sky130_fd_sc_hd__a21oi_2
*CAP
1 *619:A_N 0.000296927
2 *618:B 0.000220455
3 *617:Y 0
4 *55:4 0.000517382
5 *618:B *617:A2 7.23747e-05
6 *618:B *618:A 1.75875e-05
7 *619:A_N *617:A2 2.33708e-05
*RES
1 *617:Y *55:4 1.6 
2 *55:4 *618:B 4.645 
3 *55:4 *619:A_N 9.245 
*END

*D_NET *56 0.00185746
*CONN
*I *634:B I *D sky130_fd_sc_hd__xor2_1
*I *620:A2 I *D sky130_fd_sc_hd__a21oi_2
*I *618:Y O *D sky130_fd_sc_hd__xnor2_1
*CAP
1 *634:B 0
2 *620:A2 0.000122471
3 *618:Y 0.000319369
4 *56:12 0.000441839
5 *620:A2 *620:A1 0.000242606
6 *620:A2 *620:B1 0.000241037
7 *620:A2 *692:D 1.12578e-05
8 *620:A2 *58:6 0.000200615
9 *620:A2 *195:18 4.82863e-05
10 *56:12 *617:A2 3.64722e-05
11 *56:12 *633:A 6.28765e-05
12 *56:12 *691:D 7.63125e-05
13 *56:12 *185:10 5.43211e-05
14 *56:12 *195:18 0
*RES
1 *618:Y *56:12 10.85 
2 *56:12 *620:A2 6.775 
3 *56:12 *634:B 1.6 
*END

*D_NET *57 0.00186028
*CONN
*I *620:B1 I *D sky130_fd_sc_hd__a21oi_2
*I *619:X O *D sky130_fd_sc_hd__and2b_1
*CAP
1 *620:B1 0.000677967
2 *619:X 0.000677967
3 *620:B1 *619:B 8.64421e-05
4 *620:B1 *692:D 4.99619e-05
5 *620:B1 *145:22 3.86529e-05
6 *620:B1 *195:18 8.82557e-05
7 *620:A2 *620:B1 0.000241037
*RES
1 *619:X *620:B1 17.385 
*END

*D_NET *58 0.00191917
*CONN
*I *622:A_N I *D sky130_fd_sc_hd__and2b_1
*I *621:B I *D sky130_fd_sc_hd__xnor2_1
*I *620:Y O *D sky130_fd_sc_hd__a21oi_2
*CAP
1 *622:A_N 0.000251394
2 *621:B 6.34556e-05
3 *620:Y 0.000126595
4 *58:6 0.000441444
5 *621:B *621:A 5.06989e-05
6 *621:B *692:D 0.000162308
7 *622:A_N *621:A 0.000122492
8 *622:A_N *622:B 4.88147e-05
9 *622:A_N *665:D 0
10 *58:6 *692:D 0.000451358
11 *620:A2 *58:6 0.000200615
*RES
1 *620:Y *58:6 5.845 
2 *58:6 *621:B 3.445 
3 *58:6 *622:A_N 10.49 
*END

*D_NET *59 0.000794898
*CONN
*I *643:B I *D sky130_fd_sc_hd__xor2_1
*I *623:A2 I *D sky130_fd_sc_hd__a21o_1
*I *621:Y O *D sky130_fd_sc_hd__xnor2_1
*CAP
1 *643:B 1.9836e-05
2 *623:A2 6.42247e-05
3 *621:Y 0.000115458
4 *59:10 0.000199519
5 *623:A2 *643:A 8.02568e-05
6 *623:A2 *693:D 2.69217e-05
7 *643:B *643:A 2.69217e-05
8 *59:10 *663:D 0.000158552
9 *59:10 *693:D 6.60071e-05
10 *59:10 *176:10 3.72007e-05
*RES
1 *621:Y *59:10 9.02 
2 *59:10 *623:A2 3.1 
3 *59:10 *643:B 2.05 
*END

*D_NET *60 0.000948914
*CONN
*I *623:B1 I *D sky130_fd_sc_hd__a21o_1
*I *622:X O *D sky130_fd_sc_hd__and2b_1
*CAP
1 *623:B1 0.000347871
2 *622:X 0.000347871
3 *623:B1 *643:A 0.000253173
*RES
1 *622:X *623:B1 7.715 
*END

*D_NET *61 0.00550804
*CONN
*I *625:B I *D sky130_fd_sc_hd__xnor2_1
*I *624:Y O *D sky130_fd_sc_hd__nand2_1
*CAP
1 *625:B 0.00149111
2 *624:Y 0.00149111
3 *625:B *579:A 0.000181068
4 *625:B *582:B 8.26522e-05
5 *625:B *585:A1 0.000183307
6 *625:B *590:A1 0
7 *625:B *624:B 1.79098e-05
8 *625:B *678:D 3.35791e-05
9 *625:B *681:D 0
10 *625:B *86:12 0.000132994
11 *625:B *115:29 0.00016113
12 *625:B *115:44 6.08538e-05
13 *625:B *115:52 0.000198943
14 *625:B *173:33 0.0010021
15 *625:B *206:10 0.000298433
16 *625:B *206:12 0.000172852
*RES
1 *624:Y *625:B 39.615 
*END

*D_NET *62 0.00183563
*CONN
*I *627:B I *D sky130_fd_sc_hd__and2_1
*I *626:X O *D sky130_fd_sc_hd__or2_1
*CAP
1 *627:B 0.00033814
2 *626:X 0.00033814
3 *627:B *576:A_N 0.000232944
4 *627:B *576:B 2.58336e-05
5 *627:B *576:C 2.20014e-05
6 *627:B *577:A1 0.000234079
7 *627:B *584:D 0.000234181
8 *627:B *627:A 0.000255312
9 *627:B *74:12 2.33708e-05
10 *627:B *173:33 4.63425e-05
11 *627:B *201:18 0
12 *627:B *204:28 8.52883e-05
*RES
1 *626:X *627:B 16.035 
*END

*D_NET *63 0.000942291
*CONN
*I *628:A I *D sky130_fd_sc_hd__clkbuf_1
*I *627:X O *D sky130_fd_sc_hd__and2_1
*CAP
1 *628:A 0.000443768
2 *627:X 0.000443768
3 *628:A *75:12 5.47545e-05
4 *628:A *204:28 0
5 s7 *628:A 0
*RES
1 *627:X *628:A 14.31 
*END

*D_NET *64 0.001391
*CONN
*I *630:B I *D sky130_fd_sc_hd__xor2_1
*I *629:X O *D sky130_fd_sc_hd__and2b_1
*CAP
1 *630:B 0.000438746
2 *629:X 0.000438746
3 *630:B *749:A 4.88478e-05
4 *630:B *751:A 8.49807e-05
5 *630:B *173:33 0.00034168
6 *630:B *201:18 0
7 *630:B *205:26 3.79973e-05
*RES
1 *629:X *630:B 16.29 
*END

*D_NET *65 0.000400109
*CONN
*I *640:B I *D sky130_fd_sc_hd__xnor2_1
*I *639:Y O *D sky130_fd_sc_hd__nand2b_1
*CAP
1 *640:B 8.8002e-05
2 *639:Y 8.8002e-05
3 *640:B *749:A 4.80285e-05
4 *640:B *115:19 5.35236e-05
5 *640:B *207:12 7.59417e-05
6 *640:B *209:14 4.66108e-05
*RES
1 *639:Y *640:B 9.63 
*END

*D_NET *66 0.00117571
*CONN
*I *614:A1 I *D sky130_fd_sc_hd__o21a_1
*I *568:Y O *D sky130_fd_sc_hd__inv_2
*CAP
1 *614:A1 0.000404943
2 *568:Y 0.000404943
3 *614:A1 *568:A 7.00889e-06
4 *614:A1 *632:B 0.000263371
5 *614:A1 *690:D 9.54399e-05
*RES
1 *568:Y *614:A1 14.25 
*END

*D_NET *67 0.000312529
*CONN
*I *602:A1 I *D sky130_fd_sc_hd__o21a_1
*I *569:Y O *D sky130_fd_sc_hd__clkinvlp_2
*CAP
1 *602:A1 0.00011233
2 *569:Y 0.00011233
3 *602:A1 *601:A 2.86975e-05
4 *602:A1 *602:B1 0
5 *602:A1 *114:37 5.91704e-05
*RES
1 *569:Y *602:A1 9.03 
*END

*D_NET *68 0.0015693
*CONN
*I *624:B I *D sky130_fd_sc_hd__nand2_1
*I *572:A2 I *D sky130_fd_sc_hd__a21bo_1
*I *570:X O *D sky130_fd_sc_hd__or2_4
*CAP
1 *624:B 0.000127178
2 *572:A2 6.87313e-05
3 *570:X 3.82712e-05
4 *68:10 0.000234181
5 *572:A2 *572:A1 0.000197215
6 *572:A2 *739:A 0.000233557
7 *624:B *572:A1 3.63576e-05
8 *624:B *572:B1_N 0.000153552
9 *624:B *584:B 0.000159719
10 *624:B *739:A 0.00016446
11 *68:10 *581:A 4.76051e-05
12 *68:10 *200:18 9.05592e-05
13 *625:B *624:B 1.79098e-05
*RES
1 *570:X *68:10 6.725 
2 *68:10 *572:A2 4.135 
3 *68:10 *624:B 5.98 
*END

*D_NET *69 0.00123523
*CONN
*I *624:A I *D sky130_fd_sc_hd__nand2_1
*I *572:B1_N I *D sky130_fd_sc_hd__a21bo_1
*I *571:Y O *D sky130_fd_sc_hd__nand2_1
*CAP
1 *624:A 0
2 *572:B1_N 0.000113658
3 *571:Y 0.000184966
4 *69:12 0.000298624
5 *572:B1_N *572:A1 4.71087e-05
6 *572:B1_N *173:33 0.000270764
7 *69:12 *740:A 0.000122806
8 *69:12 *206:10 4.37539e-05
9 *624:B *572:B1_N 0.000153552
*RES
1 *571:Y *69:12 8.375 
2 *69:12 *572:B1_N 5.17 
3 *69:12 *624:A 1.6 
*END

*D_NET *70 0.000708659
*CONN
*I *573:B I *D sky130_fd_sc_hd__nand2_1
*I *574:B I *D sky130_fd_sc_hd__xor2_1
*I *572:X O *D sky130_fd_sc_hd__a21bo_1
*CAP
1 *573:B 4.27248e-05
2 *574:B 8.33112e-06
3 *572:X 8.72799e-05
4 *70:10 0.000138336
5 *573:B *574:A 0.000126213
6 *573:B *738:A 1.56628e-05
7 *573:B *151:22 8.52883e-05
8 *574:B *574:A 2.16833e-05
9 *574:B *738:A 4.99619e-05
10 *70:10 *741:A 0.000133177
11 *70:10 *204:12 0
*RES