*SPEF "ieee 1481-1999"
*DESIGN "adder"
*DATE "08:19:29 Friday April 18, 2025"
*VENDOR "The OpenROAD Project"
*PROGRAM "OpenROAD"
*VERSION "b16bda7e82721d10566ff7e2b68f1ff0be9f9e38"
*DESIGN_FLOW "NAME_SCOPE LOCAL" "PIN_CAP NONE"
*DIVIDER /
*DELIMITER :
*BUS_DELIMITER []
*T_UNIT 1 NS
*C_UNIT 1 PF
*R_UNIT 1 OHM
*L_UNIT 1 HENRY

*NAME_MAP
*3 a1
*4 a10
*5 a11
*6 a12
*7 a13
*8 a14
*9 a15
*10 a16
*11 a2
*12 a3
*13 a4
*14 a5
*15 a6
*16 a7
*17 a8
*18 a9
*19 b1
*20 b10
*21 b11
*22 b12
*23 b13
*24 b14
*25 b15
*26 b16
*27 b2
*28 b3
*29 b4
*30 b5
*31 b6
*32 b7
*33 b8
*34 b9
*35 cin
*36 clk
*37 cout
*38 s1
*39 s10
*40 s11
*41 s12
*42 s13
*43 s14
*44 s15
*45 s16
*46 s2
*47 s3
*48 s4
*49 s5
*50 s6
*51 s7
*52 s8
*53 s9
*54 _000_
*55 _001_
*56 _002_
*57 _003_
*58 _004_
*59 _005_
*60 _006_
*61 _007_
*62 _008_
*63 _009_
*64 _010_
*65 _011_
*66 _012_
*67 _013_
*68 _014_
*69 _015_
*70 _016_
*71 _017_
*72 _018_
*73 _019_
*74 _020_
*75 _021_
*76 _022_
*77 _023_
*78 _024_
*79 _025_
*80 _026_
*81 _027_
*82 _028_
*83 _029_
*84 _030_
*85 _031_
*86 _032_
*87 _033_
*88 _034_
*89 _035_
*90 _036_
*91 _037_
*92 _038_
*93 _039_
*94 _040_
*95 _041_
*96 _042_
*97 _043_
*98 _044_
*99 _045_
*100 _046_
*101 _047_
*102 _048_
*103 _049_
*104 _050_
*105 _051_
*106 _052_
*107 _053_
*108 _054_
*109 _055_
*110 _056_
*111 _057_
*112 _058_
*113 _059_
*114 clknet_0_clk
*115 clknet_2_0__leaf_clk
*116 clknet_2_1__leaf_clk
*117 clknet_2_2__leaf_clk
*118 clknet_2_3__leaf_clk
*119 net1
*120 net10
*121 net11
*122 net12
*123 net13
*124 net14
*125 net15
*126 net16
*127 net17
*128 net18
*129 net19
*130 net2
*131 net20
*132 net21
*133 net22
*134 net23
*135 net24
*136 net25
*137 net26
*138 net27
*139 net28
*140 net29
*141 net3
*142 net30
*143 net31
*144 net32
*145 net33
*146 net34
*147 net35
*148 net36
*149 net37
*150 net38
*151 net39
*152 net4
*153 net40
*154 net41
*155 net42
*156 net43
*157 net44
*158 net45
*159 net46
*160 net47
*161 net48
*162 net49
*163 net5
*164 net50
*165 net51
*166 net52
*167 net53
*168 net54
*169 net6
*170 net7
*171 net8
*172 net9
*173 x1\.a
*174 x1\.b
*175 x1\.cin
*176 x1\.sum
*177 x11\.a
*178 x11\.b
*179 x11\.sum
*180 x12\.a
*181 x12\.b
*182 x12\.sum
*183 x13\.a
*184 x13\.b
*185 x13\.sum
*186 x14\.a
*187 x14\.b
*188 x14\.sum
*189 x16\.a
*190 x16\.b
*191 x16\.sum
*192 x17\.a
*193 x17\.b
*194 x17\.sum
*195 x18\.a
*196 x18\.b
*197 x18\.sum
*198 x19\.a
*199 x19\.b
*200 x19\.sum
*201 x2\.a
*202 x2\.b
*203 x2\.sum
*204 x20\.out
*205 x23\.A
*206 x23\.B
*207 x24\.A
*208 x24\.B
*209 x25\.A
*210 x25\.B
*211 x26\.A
*212 x26\.B
*213 x27\.A
*214 x27\.B
*215 x28\.A
*216 x28\.B
*217 x3\.sum
*218 x4\.sum
*219 x6\.sum
*220 x7\.sum
*221 x8\.sum
*222 x9\.sum
*223 FILLER_0_0_102
*224 FILLER_0_0_111
*225 FILLER_0_0_113
*226 FILLER_0_0_120
*227 FILLER_0_0_29
*228 FILLER_0_0_52
*229 FILLER_0_0_82
*230 FILLER_0_0_88
*231 FILLER_0_0_93
*232 FILLER_0_10_100
*233 FILLER_0_10_108
*234 FILLER_0_10_127
*235 FILLER_0_10_131
*236 FILLER_0_10_27
*237 FILLER_0_10_29
*238 FILLER_0_10_3
*239 FILLER_0_10_62
*240 FILLER_0_10_81
*241 FILLER_0_10_88
*242 FILLER_0_11_110
*243 FILLER_0_11_14
*244 FILLER_0_11_23
*245 FILLER_0_11_50
*246 FILLER_0_11_57
*247 FILLER_0_11_6
*248 FILLER_0_11_65
*249 FILLER_0_11_94
*250 FILLER_0_12_125
*251 FILLER_0_12_19
*252 FILLER_0_12_27
*253 FILLER_0_12_29
*254 FILLER_0_12_3
*255 FILLER_0_12_41
*256 FILLER_0_12_99
*257 FILLER_0_13_106
*258 FILLER_0_13_126
*259 FILLER_0_13_30
*260 FILLER_0_13_38
*261 FILLER_0_13_57
*262 FILLER_0_13_6
*263 FILLER_0_13_65
*264 FILLER_0_13_92
*265 FILLER_0_13_98
*266 FILLER_0_14_119
*267 FILLER_0_14_123
*268 FILLER_0_14_131
*269 FILLER_0_14_39
*270 FILLER_0_14_51
*271 FILLER_0_14_6
*272 FILLER_0_14_63
*273 FILLER_0_14_75
*274 FILLER_0_14_83
*275 FILLER_0_14_85
*276 FILLER_0_14_97
*277 FILLER_0_15_105
*278 FILLER_0_15_111
*279 FILLER_0_15_22
*280 FILLER_0_15_3
*281 FILLER_0_15_50
*282 FILLER_0_15_57
*283 FILLER_0_15_69
*284 FILLER_0_15_81
*285 FILLER_0_15_93
*286 FILLER_0_16_101
*287 FILLER_0_16_109
*288 FILLER_0_16_125
*289 FILLER_0_16_131
*290 FILLER_0_16_18
*291 FILLER_0_16_26
*292 FILLER_0_16_29
*293 FILLER_0_16_37
*294 FILLER_0_16_59
*295 FILLER_0_16_6
*296 FILLER_0_16_67
*297 FILLER_0_17_107
*298 FILLER_0_17_111
*299 FILLER_0_17_120
*300 FILLER_0_17_124
*301 FILLER_0_17_30
*302 FILLER_0_17_38
*303 FILLER_0_17_57
*304 FILLER_0_17_6
*305 FILLER_0_17_69
*306 FILLER_0_17_81
*307 FILLER_0_17_95
*308 FILLER_0_18_126
*309 FILLER_0_18_20
*310 FILLER_0_18_29
*311 FILLER_0_18_3
*312 FILLER_0_18_41
*313 FILLER_0_18_53
*314 FILLER_0_18_59
*315 FILLER_0_18_76
*316 FILLER_0_18_85
*317 FILLER_0_18_89
*318 FILLER_0_19_108
*319 FILLER_0_19_120
*320 FILLER_0_19_128
*321 FILLER_0_19_29
*322 FILLER_0_19_46
*323 FILLER_0_19_54
*324 FILLER_0_19_57
*325 FILLER_0_19_9
*326 FILLER_0_19_90
*327 FILLER_0_1_107
*328 FILLER_0_1_111
*329 FILLER_0_1_129
*330 FILLER_0_1_57
*331 FILLER_0_1_6
*332 FILLER_0_1_65
*333 FILLER_0_1_83
*334 FILLER_0_1_95
*335 FILLER_0_20_103
*336 FILLER_0_20_131
*337 FILLER_0_20_26
*338 FILLER_0_20_32
*339 FILLER_0_20_67
*340 FILLER_0_20_79
*341 FILLER_0_20_83
*342 FILLER_0_20_85
*343 FILLER_0_20_9
*344 FILLER_0_21_102
*345 FILLER_0_21_111
*346 FILLER_0_21_113
*347 FILLER_0_21_120
*348 FILLER_0_21_20
*349 FILLER_0_21_51
*350 FILLER_0_21_55
*351 FILLER_0_21_60
*352 FILLER_0_21_66
*353 FILLER_0_21_75
*354 FILLER_0_21_85
*355 FILLER_0_21_89
*356 FILLER_0_2_117
*357 FILLER_0_2_129
*358 FILLER_0_2_22
*359 FILLER_0_2_29
*360 FILLER_0_2_41
*361 FILLER_0_2_49
*362 FILLER_0_3_105
*363 FILLER_0_3_111
*364 FILLER_0_3_113
*365 FILLER_0_3_131
*366 FILLER_0_3_18
*367 FILLER_0_3_30
*368 FILLER_0_3_52
*369 FILLER_0_3_57
*370 FILLER_0_3_69
*371 FILLER_0_3_81
*372 FILLER_0_3_9
*373 FILLER_0_3_93
*374 FILLER_0_4_109
*375 FILLER_0_4_121
*376 FILLER_0_4_129
*377 FILLER_0_4_26
*378 FILLER_0_4_29
*379 FILLER_0_4_33
*380 FILLER_0_4_41
*381 FILLER_0_4_53
*382 FILLER_0_4_65
*383 FILLER_0_4_77
*384 FILLER_0_4_83
*385 FILLER_0_4_85
*386 FILLER_0_4_9
*387 FILLER_0_4_97
*388 FILLER_0_5_101
*389 FILLER_0_5_109
*390 FILLER_0_5_129
*391 FILLER_0_5_19
*392 FILLER_0_5_31
*393 FILLER_0_5_53
*394 FILLER_0_5_64
*395 FILLER_0_5_68
*396 FILLER_0_5_76
*397 FILLER_0_5_84
*398 FILLER_0_6_117
*399 FILLER_0_6_129
*400 FILLER_0_6_13
*401 FILLER_0_6_21
*402 FILLER_0_6_27
*403 FILLER_0_6_29
*404 FILLER_0_6_37
*405 FILLER_0_6_6
*406 FILLER_0_6_69
*407 FILLER_0_6_85
*408 FILLER_0_7_103
*409 FILLER_0_7_111
*410 FILLER_0_7_113
*411 FILLER_0_7_131
*412 FILLER_0_7_21
*413 FILLER_0_7_29
*414 FILLER_0_7_3
*415 FILLER_0_7_55
*416 FILLER_0_7_71
*417 FILLER_0_7_88
*418 FILLER_0_7_96
*419 FILLER_0_8_102
*420 FILLER_0_8_114
*421 FILLER_0_8_126
*422 FILLER_0_8_18
*423 FILLER_0_8_26
*424 FILLER_0_8_29
*425 FILLER_0_8_48
*426 FILLER_0_8_56
*427 FILLER_0_8_6
*428 FILLER_0_8_63
*429 FILLER_0_8_73
*430 FILLER_0_8_77
*431 FILLER_0_8_85
*432 FILLER_0_9_101
*433 FILLER_0_9_111
*434 FILLER_0_9_113
*435 FILLER_0_9_125
*436 FILLER_0_9_131
*437 FILLER_0_9_30
*438 FILLER_0_9_51
*439 FILLER_0_9_55
*440 FILLER_0_9_57
*441 FILLER_0_9_6
*442 FILLER_0_9_69
*443 FILLER_0_9_81
*444 FILLER_0_9_93
*445 PHY_EDGE_ROW_0_Left_22
*446 PHY_EDGE_ROW_0_Right_0
*447 PHY_EDGE_ROW_10_Left_32
*448 PHY_EDGE_ROW_10_Right_10
*449 PHY_EDGE_ROW_11_Left_33
*450 PHY_EDGE_ROW_11_Right_11
*451 PHY_EDGE_ROW_12_Left_34
*452 PHY_EDGE_ROW_12_Right_12
*453 PHY_EDGE_ROW_13_Left_35
*454 PHY_EDGE_ROW_13_Right_13
*455 PHY_EDGE_ROW_14_Left_36
*456 PHY_EDGE_ROW_14_Right_14
*457 PHY_EDGE_ROW_15_Left_37
*458 PHY_EDGE_ROW_15_Right_15
*459 PHY_EDGE_ROW_16_Left_38
*460 PHY_EDGE_ROW_16_Right_16
*461 PHY_EDGE_ROW_17_Left_39
*462 PHY_EDGE_ROW_17_Right_17
*463 PHY_EDGE_ROW_18_Left_40
*464 PHY_EDGE_ROW_18_Right_18
*465 PHY_EDGE_ROW_19_Left_41
*466 PHY_EDGE_ROW_19_Right_19
*467 PHY_EDGE_ROW_1_Left_23
*468 PHY_EDGE_ROW_1_Right_1
*469 PHY_EDGE_ROW_20_Left_42
*470 PHY_EDGE_ROW_20_Right_20
*471 PHY_EDGE_ROW_21_Left_43
*472 PHY_EDGE_ROW_21_Right_21
*473 PHY_EDGE_ROW_2_Left_24
*474 PHY_EDGE_ROW_2_Right_2
*475 PHY_EDGE_ROW_3_Left_25
*476 PHY_EDGE_ROW_3_Right_3
*477 PHY_EDGE_ROW_4_Left_26
*478 PHY_EDGE_ROW_4_Right_4
*479 PHY_EDGE_ROW_5_Left_27
*480 PHY_EDGE_ROW_5_Right_5
*481 PHY_EDGE_ROW_6_Left_28
*482 PHY_EDGE_ROW_6_Right_6
*483 PHY_EDGE_ROW_7_Left_29
*484 PHY_EDGE_ROW_7_Right_7
*485 PHY_EDGE_ROW_8_Left_30
*486 PHY_EDGE_ROW_8_Right_8
*487 PHY_EDGE_ROW_9_Left_31
*488 PHY_EDGE_ROW_9_Right_9
*489 TAP_TAPCELL_ROW_0_44
*490 TAP_TAPCELL_ROW_0_45
*491 TAP_TAPCELL_ROW_0_46
*492 TAP_TAPCELL_ROW_0_47
*493 TAP_TAPCELL_ROW_10_66
*494 TAP_TAPCELL_ROW_10_67
*495 TAP_TAPCELL_ROW_11_68
*496 TAP_TAPCELL_ROW_11_69
*497 TAP_TAPCELL_ROW_12_70
*498 TAP_TAPCELL_ROW_12_71
*499 TAP_TAPCELL_ROW_13_72
*500 TAP_TAPCELL_ROW_13_73
*501 TAP_TAPCELL_ROW_14_74
*502 TAP_TAPCELL_ROW_14_75
*503 TAP_TAPCELL_ROW_15_76
*504 TAP_TAPCELL_ROW_15_77
*505 TAP_TAPCELL_ROW_16_78
*506 TAP_TAPCELL_ROW_16_79
*507 TAP_TAPCELL_ROW_17_80
*508 TAP_TAPCELL_ROW_17_81
*509 TAP_TAPCELL_ROW_18_82
*510 TAP_TAPCELL_ROW_18_83
*511 TAP_TAPCELL_ROW_19_84
*512 TAP_TAPCELL_ROW_19_85
*513 TAP_TAPCELL_ROW_1_48
*514 TAP_TAPCELL_ROW_1_49
*515 TAP_TAPCELL_ROW_20_86
*516 TAP_TAPCELL_ROW_20_87
*517 TAP_TAPCELL_ROW_21_88
*518 TAP_TAPCELL_ROW_21_89
*519 TAP_TAPCELL_ROW_21_90
*520 TAP_TAPCELL_ROW_21_91
*521 TAP_TAPCELL_ROW_2_50
*522 TAP_TAPCELL_ROW_2_51
*523 TAP_TAPCELL_ROW_3_52
*524 TAP_TAPCELL_ROW_3_53
*525 TAP_TAPCELL_ROW_4_54
*526 TAP_TAPCELL_ROW_4_55
*527 TAP_TAPCELL_ROW_5_56
*528 TAP_TAPCELL_ROW_5_57
*529 TAP_TAPCELL_ROW_6_58
*530 TAP_TAPCELL_ROW_6_59
*531 TAP_TAPCELL_ROW_7_60
*532 TAP_TAPCELL_ROW_7_61
*533 TAP_TAPCELL_ROW_8_62
*534 TAP_TAPCELL_ROW_8_63
*535 TAP_TAPCELL_ROW_9_64
*536 TAP_TAPCELL_ROW_9_65
*537 _060_
*538 _061_
*539 _062_
*540 _063_
*541 _064_
*542 _065_
*543 _066_
*544 _067_
*545 _068_
*546 _069_
*547 _070_
*548 _071_
*549 _072_
*550 _073_
*551 _074_
*552 _075_
*553 _076_
*554 _077_
*555 _078_
*556 _079_
*557 _080_
*558 _081_
*559 _082_
*560 _083_
*561 _084_
*562 _085_
*563 _086_
*564 _087_
*565 _088_
*566 _089_
*567 _090_
*568 _091_
*569 _092_
*570 _093_
*571 _094_
*572 _095_
*573 _096_
*574 _097_
*575 _098_
*576 _099_
*577 _100_
*578 _101_
*579 _102_
*580 _103_
*581 _104_
*582 _105_
*583 _106_
*584 _107_
*585 _108_
*586 _109_
*587 _110_
*588 _111_
*589 _112_
*590 _113_
*591 _114_
*592 _115_
*593 _116_
*594 _117_
*595 _118_
*596 _119_
*597 _120_
*598 _121_
*599 _122_
*600 _123_
*601 _124_
*602 _125_
*603 _126_
*604 _127_
*605 _128_
*606 _129_
*607 _130_
*608 _131_
*609 _132_
*610 _133_
*611 _134_
*612 _135_
*613 _136_
*614 _137_
*615 _138_
*616 _139_
*617 _140_
*618 _141_
*619 _142_
*620 _143_
*621 _144_
*622 _145_
*623 _146_
*624 _147_
*625 _148_
*626 _149_
*627 _150_
*628 _151_
*629 _152_
*630 _153_
*631 _154_
*632 _155_
*633 _156_
*634 _157_
*635 _158_
*636 _159_
*637 _160_
*638 _161_
*639 _162_
*640 _163_
*641 _164_
*642 _165_
*643 _166_
*644 _167_
*645 _168_
*646 _169_
*647 _170_
*648 _171_
*649 _172_
*650 _173_
*651 _174_
*652 _175_
*653 _176_
*654 _177_
*655 _178_
*656 _179_
*657 _180_
*658 _181_
*659 _182_
*660 _183_
*661 _184_
*662 _185_
*663 _186_
*664 clkbuf_0_clk
*665 clkbuf_2_0__f_clk
*666 clkbuf_2_1__f_clk
*667 clkbuf_2_2__f_clk
*668 clkbuf_2_3__f_clk
*669 clkload0
*670 clkload1
*671 clkload2
*672 input1
*673 input10
*674 input11
*675 input12
*676 input13
*677 input14
*678 input15
*679 input16
*680 input17
*681 input18
*682 input19
*683 input2
*684 input20
*685 input21
*686 input22
*687 input23
*688 input24
*689 input25
*690 input26
*691 input27
*692 input28
*693 input29
*694 input3
*695 input30
*696 input31
*697 input32
*698 input33
*699 input4
*700 input5
*701 input6
*702 input7
*703 input8
*704 input9
*705 output34
*706 output35
*707 output36
*708 output37
*709 output38
*710 output39
*711 output40
*712 output41
*713 output42
*714 output43
*715 output44
*716 output45
*717 output46
*718 output47
*719 output48
*720 output49
*721 output50
*722 rebuffer1
*723 rebuffer2
*724 rebuffer3
*725 rebuffer4

*PORTS
a1 I
a10 I
a11 I
a12 I
a13 I
a14 I
a15 I
a16 I
a2 I
a3 I
a4 I
a5 I
a6 I
a7 I
a8 I
a9 I
b1 I
b10 I
b11 I
b12 I
b13 I
b14 I
b15 I
b16 I
b2 I
b3 I
b4 I
b5 I
b6 I
b7 I
b8 I
b9 I
cin I
clk I
cout O
s1 O
s10 O
s11 O
s12 O
s13 O
s14 O
s15 O
s16 O
s2 O
s3 O
s4 O
s5 O
s6 O
s7 O
s8 O
s9 O

*D_NET *3 0.00167632
*CONN
*P a1 I
*I *672:A I *D sky130_fd_sc_hd__clkbuf_1
*CAP
1 a1 0.00078818
2 *672:A 0.00078818
3 *672:A cout 0
4 *672:A s15 6.65733e-05
5 *672:A *704:A 0
6 *672:A *205:12 3.33839e-05
*RES
1 a1 *672:A 17.55 
*END

*D_NET *4 0.00119085
*CONN
*P a10 I
*I *683:A I *D sky130_fd_sc_hd__clkbuf_1
*CAP
1 a10 0.000525918
2 *683:A 0.000525918
3 *683:A *632:D 5.98273e-05
4 *683:A *634:D 7.91889e-05
5 *683:A *679:A 0
6 *683:A *694:A 0
*RES
1 a10 *683:A 13.29 
*END

*D_NET *5 0.00131521
*CONN
*P a11 I
*I *694:A I *D sky130_fd_sc_hd__clkbuf_1
*CAP
1 a11 0.000552442
2 *694:A 0.000552442
3 *694:A *592:B1 0.000161467
4 *694:A *634:D 4.8854e-05
5 *694:A *699:A 0
6 *683:A *694:A 0
*RES
1 a11 *694:A 13.98 
*END

*D_NET *6 0.00118593
*CONN
*P a12 I
*I *699:A I *D sky130_fd_sc_hd__clkbuf_1
*CAP
1 a12 0.000529682
2 *699:A 0.000529682
3 *699:A *591:A_N 0.00012657
4 *699:A *700:A 0
5 *694:A *699:A 0
*RES
1 a12 *699:A 13.185 
*END

*D_NET *7 0.00110313
*CONN
*P a13 I
*I *700:A I *D sky130_fd_sc_hd__clkbuf_1
*CAP
1 a13 0.000551563
2 *700:A 0.000551563
3 *700:A *640:D 0
4 *699:A *700:A 0
*RES
1 a13 *700:A 13.08 
*END

*D_NET *8 0.0010983
*CONN
*P a14 I
*I *701:A I *D sky130_fd_sc_hd__clkbuf_1
*CAP
1 a14 0.000522507
2 *701:A 0.000522507
3 *701:A *640:D 0
4 *701:A *644:D 5.32876e-05
5 *701:A *702:A 0
*RES
1 a14 *701:A 13.08 
*END

*D_NET *9 0.00113844
*CONN
*P a15 I
*I *702:A I *D sky130_fd_sc_hd__clkbuf_1
*CAP
1 a15 0.000555798
2 *702:A 0.000555798
3 *702:A *644:D 2.68464e-05
4 *702:A *703:A 0
5 *701:A *702:A 0
*RES
1 a15 *702:A 13.29 
*END

*D_NET *10 0.0010834
*CONN
*P a16 I
*I *703:A I *D sky130_fd_sc_hd__clkbuf_1
*CAP
1 a16 0.000541699
2 *703:A 0.000541699
3 *702:A *703:A 0
*RES
1 a16 *703:A 13.08 
*END

*D_NET *11 0.00206469
*CONN
*P a2 I
*I *704:A I *D sky130_fd_sc_hd__clkbuf_1
*CAP
1 a2 0.00074551
2 *704:A 0.00074551
3 *704:A cout 0
4 *704:A *614:CLK 0.00057159
5 *704:A *614:D 2.0851e-06
6 *704:A *673:A 0
7 *672:A *704:A 0
*RES
1 a2 *704:A 17.775 
*END

*D_NET *12 0.00249171
*CONN
*P a3 I
*I *673:A I *D sky130_fd_sc_hd__clkbuf_1
*CAP
1 a3 0.000993003
2 *673:A 0.000993003
3 *673:A *614:D 0
4 *673:A *661:CLK 0.000123977
5 *673:A *661:D 0.000223875
6 *673:A *705:A 0.000157848
7 *673:A *173:14 0
8 *704:A *673:A 0
*RES
1 a3 *673:A 22.095 
*END

*D_NET *13 0.00105276
*CONN
*P a4 I
*I *674:A I *D sky130_fd_sc_hd__clkbuf_1
*CAP
1 a4 0.000500185
2 *674:A 0.000500185
3 *674:A s16 4.61701e-06
4 *674:A *614:CLK 4.77719e-05
5 *674:A *616:D 0
6 *674:A *675:A 0
*RES
1 a4 *674:A 12.39 
*END

*D_NET *14 0.00198
*CONN
*P a5 I
*I *675:A I *D sky130_fd_sc_hd__clkbuf_1
*CAP
1 a5 0.000789772
2 *675:A 0.000789772
3 *675:A *624:D 8.65961e-05
4 *675:A *207:12 0.000313857
5 *674:A *675:A 0
*RES
1 a5 *675:A 17.325 
*END

*D_NET *15 0.00107819
*CONN
*P a6 I
*I *676:A I *D sky130_fd_sc_hd__clkbuf_1
*CAP
1 a6 0.000539097
2 *676:A 0.000539097
3 *676:A *677:A 0
*RES
1 a6 *676:A 13.08 
*END

*D_NET *16 0.00125436
*CONN
*P a7 I
*I *677:A I *D sky130_fd_sc_hd__clkbuf_1
*CAP
1 a7 0.000602589
2 *677:A 0.000602589
3 *677:A *626:D 4.91849e-05
4 *677:A *678:A 0
5 *676:A *677:A 0
*RES
1 a7 *677:A 14.115 
*END

*D_NET *17 0.00110562
*CONN
*P a8 I
*I *678:A I *D sky130_fd_sc_hd__clkbuf_1
*CAP
1 a8 0.000552812
2 *678:A 0.000552812
3 *677:A *678:A 0
*RES
1 a8 *678:A 13.08 
*END

*D_NET *18 0.0010626
*CONN
*P a9 I
*I *679:A I *D sky130_fd_sc_hd__clkbuf_1
*CAP
1 a9 0.000531302
2 *679:A 0.000531302
3 *679:A *632:D 0
4 *683:A *679:A 0
*RES
1 a9 *679:A 13.08 
*END

*D_NET *19 0.00191734
*CONN
*P b1 I
*I *680:A I *D sky130_fd_sc_hd__clkbuf_1
*CAP
1 b1 0.000932157
2 *680:A 0.000932157
3 *680:A s2 2.69153e-05
4 *680:A s3 2.61137e-05
5 *680:A s4 0
6 *680:A *615:CLK 0
7 *680:A *689:A 0
*RES
1 b1 *680:A 19.59 
*END

*D_NET *20 0.00107496
*CONN
*P b10 I
*I *681:A I *D sky130_fd_sc_hd__clkbuf_1
*CAP
1 b10 0.000497654
2 *681:A 0.000497654
3 *681:A *633:D 7.96553e-05
4 *681:A *682:A 0
5 *681:A *697:A 0
*RES
1 b10 *681:A 12.42 
*END

*D_NET *21 0.00100307
*CONN
*P b11 I
*I *682:A I *D sky130_fd_sc_hd__clkbuf_1
*CAP
1 b11 0.000485036
2 *682:A 0.000485036
3 *682:A *635:D 3.30017e-05
4 *682:A *684:A 0
5 *681:A *682:A 0
*RES
1 b11 *682:A 11.94 
*END

*D_NET *22 0.000788735
*CONN
*P b12 I
*I *684:A I *D sky130_fd_sc_hd__clkbuf_1
*CAP
1 b12 0.000394367
2 *684:A 0.000394367
3 *684:A *685:A 0
4 *682:A *684:A 0
*RES
1 b12 *684:A 10.35 
*END

*D_NET *23 0.000786235
*CONN
*P b13 I
*I *685:A I *D sky130_fd_sc_hd__clkbuf_1
*CAP
1 b13 0.000393118
2 *685:A 0.000393118
3 *685:A *686:A 0
4 *684:A *685:A 0
*RES
1 b13 *685:A 10.35 
*END

*D_NET *24 0.000884146
*CONN
*P b14 I
*I *686:A I *D sky130_fd_sc_hd__clkbuf_1
*CAP
1 b14 0.00043319
2 *686:A 0.00043319
3 *686:A *641:D 1.77665e-05
4 *686:A *687:A 0
5 *685:A *686:A 0
*RES
1 b14 *686:A 11.04 
*END

*D_NET *25 0.000906395
*CONN
*P b15 I
*I *687:A I *D sky130_fd_sc_hd__clkbuf_1
*CAP
1 b15 0.000451372
2 *687:A 0.000451372
3 *687:A *643:D 3.64998e-06
4 *687:A *688:A 0
5 *686:A *687:A 0
*RES
1 b15 *687:A 11.25 
*END

*D_NET *26 0.000891019
*CONN
*P b16 I
*I *688:A I *D sky130_fd_sc_hd__clkbuf_1
*CAP
1 b16 0.000445509
2 *688:A 0.000445509
3 *687:A *688:A 0
*RES
1 b16 *688:A 11.04 
*END

*D_NET *27 0.00105767
*CONN
*P b2 I
*I *689:A I *D sky130_fd_sc_hd__clkbuf_1
*CAP
1 b2 0.000478877
2 *689:A 0.000478877
3 *689:A *617:D 1.33293e-05
4 *689:A *690:A 8.65905e-05
5 *680:A *689:A 0
*RES
1 b2 *689:A 11.835 
*END

*D_NET *28 0.00140345
*CONN
*P b3 I
*I *690:A I *D sky130_fd_sc_hd__clkbuf_1
*CAP
1 b3 0.000554716
2 *690:A 0.000554716
3 *690:A s1 0.000120293
4 *690:A *617:D 2.11084e-05
5 *690:A *619:D 5.06209e-05
6 *690:A *647:D 1.54049e-05
7 *690:A *691:A 0
8 *689:A *690:A 8.65905e-05
*RES
1 b3 *690:A 14.01 
*END

*D_NET *29 0.000795819
*CONN
*P b4 I
*I *691:A I *D sky130_fd_sc_hd__clkbuf_1
*CAP
1 b4 0.00039791
2 *691:A 0.00039791
3 *691:A s1 0
4 *691:A *692:A 0
5 *690:A *691:A 0
*RES
1 b4 *691:A 10.35 
*END

*D_NET *30 0.00104026
*CONN
*P b5 I
*I *692:A I *D sky130_fd_sc_hd__clkbuf_1
*CAP
1 b5 0.000476835
2 *692:A 0.000476835
3 *692:A *623:D 8.65905e-05
4 *692:A *693:A 0
5 *691:A *692:A 0
*RES
1 b5 *692:A 11.94 
*END

*D_NET *31 0.00108735
*CONN
*P b6 I
*I *693:A I *D sky130_fd_sc_hd__clkbuf_1
*CAP
1 b6 0.000497389
2 *693:A 0.000497389
3 *693:A *625:D 1.9872e-05
4 *693:A *695:A 0
5 *693:A *210:14 7.27003e-05
6 *692:A *693:A 0
*RES
1 b6 *693:A 12.42 
*END

*D_NET *32 0.00121473
*CONN
*P b7 I
*I *695:A I *D sky130_fd_sc_hd__clkbuf_1
*CAP
1 b7 0.000462223
2 *695:A 0.000462223
3 *695:A *629:CLK 0.000235514
4 *695:A *696:A 0
5 *695:A *210:14 5.47711e-05
6 *693:A *695:A 0
*RES
1 b7 *695:A 12.18 
*END

*D_NET *33 0.000923845
*CONN
*P b8 I
*I *696:A I *D sky130_fd_sc_hd__clkbuf_1
*CAP
1 b8 0.00041319
2 *696:A 0.00041319
3 *696:A *629:CLK 8.65905e-05
4 *696:A *629:D 1.08758e-05
5 *696:A *697:A 0
6 *696:A *210:14 0
7 *695:A *696:A 0
*RES
1 b8 *696:A 10.695 
*END

*D_NET *34 0.00130721
*CONN
*P b9 I
*I *697:A I *D sky130_fd_sc_hd__clkbuf_1
*CAP
1 b9 0.000459851
2 *697:A 0.000459851
3 *697:A *629:CLK 0.00012657
4 *697:A *629:D 0.000228576
5 *697:A *631:D 3.23663e-05
6 *681:A *697:A 0
7 *696:A *697:A 0
*RES
1 b9 *697:A 12.87 
*END

*D_NET *35 0.000578203
*CONN
*P cin I
*I *698:A I *D sky130_fd_sc_hd__buf_1
*CAP
1 cin 0.000283494
2 *698:A 0.000283494
3 *698:A *145:20 1.12156e-05
*RES
1 cin *698:A 5.67003 
*END

*D_NET *36 0.00732392
*CONN
*P clk I
*I *664:A I *D sky130_fd_sc_hd__clkbuf_16
*CAP
1 clk 0.00364249
2 *664:A 0.00364249
3 *664:A *571:A1 0
4 *664:A *604:A 3.89311e-05
*RES
1 clk *664:A 12.1691 
*END

*D_NET *37 0.00163957
*CONN
*P cout O
*I *705:X O *D sky130_fd_sc_hd__buf_1
*CAP
1 cout 0.000680669
2 *705:X 0.000680669
3 cout s16 0
4 cout *614:D 7.83841e-05
5 cout *711:A 5.20249e-05
6 cout *712:A 0.000127337
7 cout *205:12 2.04875e-05
8 *672:A cout 0
9 *704:A cout 0
*RES
1 *705:X cout 13.35 
*END

*D_NET *38 0.00194962
*CONN
*P s1 O
*I *706:X O *D sky130_fd_sc_hd__buf_1
*CAP
1 s1 0.000832375
2 *706:X 0.000832375
3 s1 s2 0
4 s1 *647:D 0
5 s1 *706:A 9.31514e-05
6 s1 *206:14 7.14241e-05
7 *690:A s1 0.000120293
8 *691:A s1 0
*RES
1 *706:X s1 11.899 
*END

*D_NET *39 0.000638134
*CONN
*P s10 O
*I *707:X O *D sky130_fd_sc_hd__buf_1
*CAP
1 s10 0.000315914
2 *707:X 0.000315914
3 s10 s11 6.30563e-06
4 s10 s9 0
5 s10 *201:12 0
*RES
1 *707:X s10 7.3443 
*END

*D_NET *40 0.000622187
*CONN
*P s11 O
*I *708:X O *D sky130_fd_sc_hd__buf_1
*CAP
1 s11 0.000303602
2 *708:X 0.000303602
3 s11 s12 8.67624e-06
4 s10 s11 6.30563e-06
*RES
1 *708:X s11 7.0893 
*END

*D_NET *41 0.000616115
*CONN
*P s12 O
*I *709:X O *D sky130_fd_sc_hd__buf_1
*CAP
1 s12 0.000251279
2 *709:X 0.000251279
3 s12 s13 0
4 s12 *201:12 0.000104881
5 s11 s12 8.67624e-06
*RES
1 *709:X s12 5.86677 
*END

*D_NET *42 0.000628024
*CONN
*P s13 O
*I *710:X O *D sky130_fd_sc_hd__buf_1
*CAP
1 s13 0.000309674
2 *710:X 0.000309674
3 s13 s14 8.67624e-06
4 s12 s13 0
*RES
1 *710:X s13 7.0893 
*END

*D_NET *43 0.000564669
*CONN
*P s14 O
*I *711:X O *D sky130_fd_sc_hd__buf_1
*CAP
1 s14 0.000249953
2 *711:X 0.000249953
3 s14 s15 0
4 s14 *711:A 5.60879e-05
5 s13 s14 8.67624e-06
*RES
1 *711:X s14 5.86677 
*END

*D_NET *44 0.00064034
*CONN
*P s15 O
*I *712:X O *D sky130_fd_sc_hd__buf_1
*CAP
1 s15 0.000282545
2 *712:X 0.000282545
3 s15 s16 8.67624e-06
4 s14 s15 0
5 *672:A s15 6.65733e-05
*RES
1 *712:X s15 7.0893 
*END

*D_NET *45 0.00252594
*CONN
*P s16 O
*I *713:X O *D sky130_fd_sc_hd__buf_1
*CAP
1 s16 0.00118661
2 *713:X 0.00118661
3 s16 *616:D 0
4 s16 *116:78 0.000139435
5 cout s16 0
6 s15 s16 8.67624e-06
7 *674:A s16 4.61701e-06
*RES
1 *713:X s16 7.8917 
*END

*D_NET *46 0.00134566
*CONN
*P s2 O
*I *714:X O *D sky130_fd_sc_hd__buf_1
*CAP
1 s2 0.000475246
2 *714:X 0.000475246
3 s2 s3 0
4 s2 *615:CLK 0.000183837
5 s2 *615:D 7.58994e-05
6 s2 *617:D 3.50076e-05
7 s2 *647:CLK 0
8 s2 *715:A 7.35048e-05
9 s1 s2 0
10 *680:A s2 2.69153e-05
*RES
1 *714:X s2 10.9518 
*END

*D_NET *47 0.000574204
*CONN
*P s3 O
*I *715:X O *D sky130_fd_sc_hd__buf_1
*CAP
1 s3 0.000242724
2 *715:X 0.000242724
3 s3 s4 0
4 s3 *615:CLK 6.26425e-05
5 s2 s3 0
6 *680:A s3 2.61137e-05
*RES
1 *715:X s3 5.7485 
*END

*D_NET *48 0.000851153
*CONN
*P s4 O
*I *716:X O *D sky130_fd_sc_hd__buf_1
*CAP
1 s4 0.000403672
2 *716:X 0.000403672
3 s4 s5 1.68881e-05
4 s4 *714:A 0
5 s4 *717:A 2.69217e-05
6 s3 s4 0
7 *680:A s4 0
*RES
1 *716:X s4 8.3793 
*END

*D_NET *49 0.000546931
*CONN
*P s5 O
*I *717:X O *D sky130_fd_sc_hd__buf_1
*CAP
1 s5 0.000255592
2 *717:X 0.000255592
3 s5 s6 0
4 s5 *714:A 1.88597e-05
5 s4 s5 1.68881e-05
*RES
1 *717:X s5 5.7485 
*END

*D_NET *50 0.000457485
*CONN
*P s6 O
*I *718:X O *D sky130_fd_sc_hd__buf_1
*CAP
1 s6 0.000228742
2 *718:X 0.000228742
3 s6 s7 0
4 s5 s6 0
*RES
1 *718:X s6 6.0987 
*END

*D_NET *51 0.00062256
*CONN
*P s7 O
*I *719:X O *D sky130_fd_sc_hd__buf_1
*CAP
1 s7 0.000305119
2 *719:X 0.000305119
3 s7 s8 1.23223e-05
4 s6 s7 0
*RES
1 *719:X s7 7.0893 
*END

*D_NET *52 0.000547299
*CONN
*P s8 O
*I *720:X O *D sky130_fd_sc_hd__buf_1
*CAP
1 s8 0.000267488
2 *720:X 0.000267488
3 s8 s9 0
4 s7 s8 1.23223e-05
*RES
1 *720:X s8 6.8343 
*END

*D_NET *53 0.000454153
*CONN
*P s9 O
*I *721:X O *D sky130_fd_sc_hd__buf_1
*CAP
1 s9 0.000219333
2 *721:X 0.000219333
3 s9 *205:12 1.54862e-05
4 s10 s9 0
5 s8 s9 0
*RES
1 *721:X s9 5.10177 
*END

*D_NET *54 0.00053309
*CONN
*I *586:B1 I *D sky130_fd_sc_hd__a21oi_2
*I *585:X O *D sky130_fd_sc_hd__and2b_1
*CAP
1 *586:B1 0.000187218
2 *585:X 0.000187218
3 *586:B1 *585:A_N 4.89295e-05
4 *586:B1 *55:10 0
5 *586:B1 *192:14 0.000109723
*RES
1 *585:X *586:B1 10.17 
*END

*D_NET *55 0.0025149
*CONN
*I *587:B I *D sky130_fd_sc_hd__xnor2_1
*I *588:A_N I *D sky130_fd_sc_hd__and2b_1
*I *586:Y O *D sky130_fd_sc_hd__a21oi_2
*CAP
1 *587:B 0.000231445
2 *588:A_N 0.000315704
3 *586:Y 0.000302314
4 *55:10 0.000849462
5 *587:B *56:12 0.000216458
6 *587:B *145:20 0
7 *588:A_N *588:B 7.52478e-05
8 *588:A_N *589:B1 0.000348011
9 *588:A_N *640:D 1.54049e-05
10 *55:10 *586:A1 4.9253e-06
11 *55:10 *56:12 0.000155928
12 *55:10 *113:12 0
13 *55:10 *145:20 0
14 *55:10 *192:14 0
15 *55:10 *193:12 0
16 *55:10 *196:18 0
17 *586:B1 *55:10 0
*RES
1 *586:Y *55:10 8.49 
2 *55:10 *588:A_N 9.57 
3 *55:10 *587:B 7.83 
*END

*D_NET *56 0.00180298
*CONN
*I *589:A2 I *D sky130_fd_sc_hd__a21oi_2
*I *603:B I *D sky130_fd_sc_hd__xor2_1
*I *587:Y O *D sky130_fd_sc_hd__xnor2_1
*CAP
1 *589:A2 0.000203374
2 *603:B 7.58618e-05
3 *587:Y 0.00019425
4 *56:12 0.000473485
5 *589:A2 *589:A1 8.33129e-05
6 *589:A2 *589:B1 0.000196048
7 *603:B *589:A1 1.53053e-05
8 *603:B *589:B1 8.52845e-05
9 *603:B *196:18 4.89295e-05
10 *56:12 *589:B1 5.47426e-05
11 *56:12 *640:D 0
12 *56:12 *661:D 0
13 *56:12 *196:18 0
14 *587:B *56:12 0.000216458
15 *55:10 *56:12 0.000155928
*RES
1 *587:Y *56:12 9.98 
2 *56:12 *603:B 3.085 
3 *56:12 *589:A2 5.5 
*END

*D_NET *57 0.00170847
*CONN
*I *589:B1 I *D sky130_fd_sc_hd__a21oi_2
*I *588:X O *D sky130_fd_sc_hd__and2b_1
*CAP
1 *589:B1 0.000377539
2 *588:X 0.000377539
3 *589:B1 *589:A1 0.000269303
4 *589:B1 *661:D 0
5 *588:A_N *589:B1 0.000348011
6 *589:A2 *589:B1 0.000196048
7 *603:B *589:B1 8.52845e-05
8 *56:12 *589:B1 5.47426e-05
*RES
1 *588:X *589:B1 14.31 
*END

*D_NET *58 0.00343676
*CONN
*I *591:A_N I *D sky130_fd_sc_hd__and2b_1
*I *590:B I *D sky130_fd_sc_hd__xnor2_1
*I *589:Y O *D sky130_fd_sc_hd__a21oi_2
*CAP
1 *591:A_N 0.000305674
2 *590:B 0
3 *589:Y 0.000751397
4 *58:10 0.00105707
5 *591:A_N *590:A 0.000274962
6 *591:A_N *591:B 0.000326595
7 *591:A_N *638:D 0
8 *58:10 *589:A1 0.000343712
9 *58:10 *590:A 3.19343e-05
10 *58:10 *612:A 0
11 *58:10 *660:D 0.000135279
12 *58:10 *661:D 1.83847e-05
13 *58:10 *186:8 0
14 *58:10 *196:18 6.51872e-05
15 *699:A *591:A_N 0.00012657
*RES
1 *589:Y *58:10 13.62 
2 *58:10 *590:B 3.6 
3 *58:10 *591:A_N 11.055 
*END

*D_NET *59 0.000656311
*CONN
*I *612:B I *D sky130_fd_sc_hd__xor2_1
*I *592:A2 I *D sky130_fd_sc_hd__a21o_1
*I *590:Y O *D sky130_fd_sc_hd__xnor2_1
*CAP
1 *612:B 0
2 *592:A2 0.000111893
3 *590:Y 7.43135e-05
4 *59:8 0.000186207
5 *592:A2 *590:A 0
6 *592:A2 *592:A1 4.82863e-05
7 *592:A2 *612:A 0.000131408
8 *592:A2 *660:D 4.99619e-05
9 *592:A2 *199:10 2.92496e-05
10 *59:8 *612:A 2.49909e-05
*RES
1 *590:Y *59:8 2.755 
2 *59:8 *592:A2 8.195 
3 *59:8 *612:B 1.6 
*END

*D_NET *60 0.00207346
*CONN
*I *592:B1 I *D sky130_fd_sc_hd__a21o_1
*I *591:X O *D sky130_fd_sc_hd__and2b_1
*CAP
1 *592:B1 0.000520591
2 *591:X 0.000520591
3 *592:B1 *634:D 1.31297e-05
4 *592:B1 *660:D 0.000159697
5 *592:B1 *663:D 0.000348536
6 *592:B1 *118:72 0.000349452
7 *694:A *592:B1 0.000161467
*RES
1 *591:X *592:B1 18.87 
*END

*D_NET *61 0.00344387
*CONN
*I *594:B I *D sky130_fd_sc_hd__xnor2_1
*I *593:Y O *D sky130_fd_sc_hd__nand2_1
*CAP
1 *594:B 0.000820675
2 *593:Y 0.000820675
3 *594:B *549:A 0
4 *594:B *552:A 7.6907e-05
5 *594:B *595:A 0.000134625
6 *594:B *599:B 0
7 *594:B *648:D 9.54469e-05
8 *594:B *649:D 0
9 *594:B *70:12 0.000115945
10 *594:B *71:16 0.000268266
11 *594:B *174:16 1.46781e-05
12 *594:B *174:32 0.00104656
13 *594:B *205:27 5.00903e-05
*RES
1 *593:Y *594:B 27.645 
*END

*D_NET *62 0.00024975
*CONN
*I *596:B I *D sky130_fd_sc_hd__and2_1
*I *595:X O *D sky130_fd_sc_hd__or2_1
*CAP
1 *596:B 3.0259e-05
2 *595:X 3.0259e-05
3 *596:B *720:A 6.81928e-05
4 *596:B *75:14 0.000121039
*RES
1 *595:X *596:B 4.34 
*END

*D_NET *63 0.00120107
*CONN
*I *597:A I *D sky130_fd_sc_hd__clkbuf_1
*I *596:X O *D sky130_fd_sc_hd__and2_1
*CAP
1 *597:A 0.000257464
2 *596:X 0.000257464
3 *597:A *617:D 0.000117896
4 *597:A *720:A 8.35157e-05
5 *597:A *174:32 0.000484731
*RES
1 *596:X *597:A 13.71 
*END

*D_NET *64 0.00139379
*CONN
*I *599:B I *D sky130_fd_sc_hd__xor2_1
*I *598:X O *D sky130_fd_sc_hd__and2b_1
*CAP
1 *599:B 0.000326592
2 *598:X 0.000326592
3 *599:B *598:B 0.000196063
4 *599:B *649:D 2.97746e-05
5 *599:B *720:A 0.000196063
6 *599:B *202:10 0.000178439
7 *599:B *206:25 0.000140261
8 *594:B *599:B 0
*RES
1 *598:X *599:B 14.745 
*END

*D_NET *65 0.000488666
*CONN
*I *609:B I *D sky130_fd_sc_hd__xnor2_1
*I *608:X O *D sky130_fd_sc_hd__or2b_1
*CAP
1 *609:B 0.000188484
2 *608:X 0.000188484
3 *609:B *208:25 0.000111699
*RES
1 *608:X *609:B 10.62 
*END

*D_NET *66 0.00043807
*CONN
*I *583:A1 I *D sky130_fd_sc_hd__o21a_1
*I *537:Y O *D sky130_fd_sc_hd__inv_2
*CAP
1 *583:A1 7.88524e-05
2 *537:Y 7.88524e-05
3 *583:A1 *583:A2 2.68526e-05
4 *583:A1 *583:B1 0.000114326
5 *583:A1 *601:A 0.000139187
*RES
1 *537:Y *583:A1 9.375 
*END

*D_NET *67 0.00218717
*CONN
*I *571:A1 I *D sky130_fd_sc_hd__o21a_1
*I *538:Y O *D sky130_fd_sc_hd__inv_2
*CAP
1 *571:A1 0.000741235
2 *538:Y 0.000741235
3 *571:A1 *538:A 3.64998e-06
4 *571:A1 *570:B 6.69608e-06
5 *571:A1 *571:B1 0.000606998
6 *571:A1 *604:A 0
7 *571:A1 *656:D 4.90227e-05
8 *571:A1 *100:8 8.34281e-06
9 *571:A1 *150:20 2.41605e-05
10 *571:A1 *180:14 5.83121e-06
11 *664:A *571:A1 0
*RES
1 *538:Y *571:A1 19.74 
*END

*D_NET *68 0.000775947
*CONN
*I *541:A1 I *D sky130_fd_sc_hd__a21bo_1
*I *593:B I *D sky130_fd_sc_hd__nand2_1
*I *539:X O *D sky130_fd_sc_hd__or2_4
*CAP
1 *541:A1 3.1043e-05
2 *593:B 0.000175882
3 *539:X 5.93785e-05
4 *68:8 0.000266303
5 *593:B *550:B 0
6 *593:B *593:A 2.61481e-05
7 *593:B *707:A 0.000160323
8 *593:B *174:32 4.77719e-05
9 *68:8 *173:14 9.09788e-06
*RES
1 *539:X *68:8 4.5975 
2 *68:8 *593:B 7.2375 
3 *68:8 *541:A1 4.3425 
*END

*D_NET *69 0.00102906
*CONN
*I *541:B1_N I *D sky130_fd_sc_hd__a21bo_1
*I *593:A I *D sky130_fd_sc_hd__nand2_1
*I *540:Y O *D sky130_fd_sc_hd__nand2_1
*CAP
1 *541:B1_N 0
2 *593:A 0.000194644
3 *540:Y 0.000174377
4 *69:12 0.000369021
5 *593:A *550:B 0.000112835
6 *593:A *174:32 8.46717e-05
7 *69:12 *550:A 2.87688e-05
8 *69:12 *550:B 3.04704e-05
9 *69:12 *707:A 8.12896e-06
10 *593:B *593:A 2.61481e-05
*RES
1 *540:Y *69:12 7.955 
2 *69:12 *593:A 5.185 
3 *69:12 *541:B1_N 1.6 
*END

*D_NET *70 0.00052882
*CONN
*I *542:B I *D sky130_fd_sc_hd__nand2_1
*I *543:B I *D sky130_fd_sc_hd__xor2_1
*I *541:X O *D sky130_fd_sc_hd__a21bo_1
*CAP
1 *542:B 5.5853e-05