*SPEF "ieee 1481-1999"
*DESIGN "adder"
*DATE "10:21:20 Thursday April 17, 2025"
*VENDOR "The OpenROAD Project"
*PROGRAM "OpenROAD"
*VERSION "b16bda7e82721d10566ff7e2b68f1ff0be9f9e38"
*DESIGN_FLOW "NAME_SCOPE LOCAL" "PIN_CAP NONE"
*DIVIDER /
*DELIMITER :
*BUS_DELIMITER []
*T_UNIT 1 NS
*C_UNIT 1 PF
*R_UNIT 1 OHM
*L_UNIT 1 HENRY

*NAME_MAP
*3 a1
*4 a10
*5 a11
*6 a12
*7 a13
*8 a14
*9 a15
*10 a16
*11 a2
*12 a3
*13 a4
*14 a5
*15 a6
*16 a7
*17 a8
*18 a9
*19 b1
*20 b10
*21 b11
*22 b12
*23 b13
*24 b14
*25 b15
*26 b16
*27 b2
*28 b3
*29 b4
*30 b5
*31 b6
*32 b7
*33 b8
*34 b9
*35 cin
*36 clk
*37 cout
*38 s1
*39 s10
*40 s11
*41 s12
*42 s13
*43 s14
*44 s15
*45 s16
*46 s2
*47 s3
*48 s4
*49 s5
*50 s6
*51 s7
*52 s8
*53 s9
*54 _000_
*55 _001_
*56 _002_
*57 _003_
*58 _004_
*59 _005_
*60 _006_
*61 _007_
*62 _008_
*63 _009_
*64 _010_
*65 _011_
*66 _012_
*67 _013_
*68 _014_
*69 _015_
*70 _016_
*71 _017_
*72 _018_
*73 _019_
*74 _020_
*75 _021_
*76 _022_
*77 _023_
*78 _024_
*79 _025_
*80 _026_
*81 _027_
*82 _028_
*83 _029_
*84 _030_
*85 _031_
*86 _032_
*87 _033_
*88 _034_
*89 _035_
*90 _036_
*91 _037_
*92 _038_
*93 _039_
*94 _040_
*95 _041_
*96 _042_
*97 _043_
*98 _044_
*99 _045_
*100 _046_
*101 _047_
*102 _048_
*103 _049_
*104 _050_
*105 _051_
*106 _052_
*107 _053_
*108 _054_
*109 _055_
*110 _056_
*111 _057_
*112 _058_
*113 _059_
*114 _060_
*115 _061_
*116 _062_
*117 _063_
*118 _064_
*119 _065_
*120 _066_
*121 _067_
*122 _068_
*123 clknet_0_clk
*124 clknet_2_0__leaf_clk
*125 clknet_2_1__leaf_clk
*126 clknet_2_2__leaf_clk
*127 clknet_2_3__leaf_clk
*128 net1
*129 net10
*130 net11
*131 net12
*132 net13
*133 net14
*134 net15
*135 net16
*136 net17
*137 net18
*138 net19
*139 net2
*140 net20
*141 net21
*142 net22
*143 net23
*144 net24
*145 net25
*146 net26
*147 net27
*148 net28
*149 net29
*150 net3
*151 net30
*152 net31
*153 net32
*154 net33
*155 net34
*156 net35
*157 net36
*158 net37
*159 net38
*160 net39
*161 net4
*162 net40
*163 net41
*164 net42
*165 net43
*166 net44
*167 net45
*168 net46
*169 net47
*170 net48
*171 net49
*172 net5
*173 net50
*174 net51
*175 net52
*176 net53
*177 net54
*178 net55
*179 net56
*180 net57
*181 net58
*182 net6
*183 net7
*184 net8
*185 net9
*186 x10\.A
*187 x10\.B
*188 x12\.A
*189 x12\.B
*190 x14\.A
*191 x14\.B
*192 x16\.A
*193 x16\.B
*194 x18\.A
*195 x18\.B
*196 x2\.A
*197 x2\.B
*198 x20\.A
*199 x20\.B
*200 x22\.A
*201 x22\.B
*202 x24\.A
*203 x24\.B
*204 x26\.A
*205 x26\.B
*206 x28\.A
*207 x28\.B
*208 x30\.A
*209 x30\.B
*210 x32\.A
*211 x32\.B
*212 x4\.A
*213 x4\.B
*214 x47\.c
*215 x58\.C
*216 x6\.A
*217 x6\.B
*218 x63\.S
*219 x64\.S
*220 x65\.S
*221 x66\.S
*222 x67\.S
*223 x68\.S
*224 x69\.S
*225 x70\.S
*226 x71\.S
*227 x72\.S
*228 x73\.S
*229 x74\.S
*230 x75\.S
*231 x76\.S
*232 x77\.S
*233 x78\.S
*234 x8\.A
*235 x8\.B
*236 FILLER_0_0_100
*237 FILLER_0_0_109
*238 FILLER_0_0_113
*239 FILLER_0_0_118
*240 FILLER_0_0_29
*241 FILLER_0_0_50
*242 FILLER_0_0_55
*243 FILLER_0_0_60
*244 FILLER_0_0_83
*245 FILLER_0_0_91
*246 FILLER_0_10_108
*247 FILLER_0_10_126
*248 FILLER_0_10_18
*249 FILLER_0_10_26
*250 FILLER_0_10_29
*251 FILLER_0_10_48
*252 FILLER_0_10_6
*253 FILLER_0_10_60
*254 FILLER_0_10_68
*255 FILLER_0_10_77
*256 FILLER_0_11_107
*257 FILLER_0_11_111
*258 FILLER_0_11_113
*259 FILLER_0_11_125
*260 FILLER_0_11_24
*261 FILLER_0_11_32
*262 FILLER_0_11_54
*263 FILLER_0_11_63
*264 FILLER_0_12_112
*265 FILLER_0_12_126
*266 FILLER_0_12_14
*267 FILLER_0_12_45
*268 FILLER_0_12_49
*269 FILLER_0_12_6
*270 FILLER_0_12_72
*271 FILLER_0_12_76
*272 FILLER_0_12_96
*273 FILLER_0_13_126
*274 FILLER_0_13_20
*275 FILLER_0_13_28
*276 FILLER_0_13_55
*277 FILLER_0_13_57
*278 FILLER_0_13_61
*279 FILLER_0_13_87
*280 FILLER_0_13_99
*281 FILLER_0_14_108
*282 FILLER_0_14_126
*283 FILLER_0_14_38
*284 FILLER_0_14_48
*285 FILLER_0_14_72
*286 FILLER_0_14_85
*287 FILLER_0_14_9
*288 FILLER_0_14_93
*289 FILLER_0_15_113
*290 FILLER_0_15_125
*291 FILLER_0_15_23
*292 FILLER_0_15_73
*293 FILLER_0_15_85
*294 FILLER_0_15_91
*295 FILLER_0_16_118
*296 FILLER_0_16_126
*297 FILLER_0_16_19
*298 FILLER_0_16_27
*299 FILLER_0_16_29
*300 FILLER_0_16_37
*301 FILLER_0_16_64
*302 FILLER_0_16_82
*303 FILLER_0_16_88
*304 FILLER_0_17_111
*305 FILLER_0_17_119
*306 FILLER_0_17_18
*307 FILLER_0_17_30
*308 FILLER_0_17_57
*309 FILLER_0_17_6
*310 FILLER_0_17_99
*311 FILLER_0_18_117
*312 FILLER_0_18_123
*313 FILLER_0_18_21
*314 FILLER_0_18_27
*315 FILLER_0_18_29
*316 FILLER_0_18_37
*317 FILLER_0_18_56
*318 FILLER_0_18_68
*319 FILLER_0_18_76
*320 FILLER_0_18_83
*321 FILLER_0_18_9
*322 FILLER_0_19_101
*323 FILLER_0_19_109
*324 FILLER_0_19_113
*325 FILLER_0_19_125
*326 FILLER_0_19_35
*327 FILLER_0_19_57
*328 FILLER_0_19_81
*329 FILLER_0_1_108
*330 FILLER_0_1_113
*331 FILLER_0_1_125
*332 FILLER_0_1_19
*333 FILLER_0_1_36
*334 FILLER_0_1_55
*335 FILLER_0_1_57
*336 FILLER_0_1_63
*337 FILLER_0_1_96
*338 FILLER_0_20_101
*339 FILLER_0_20_121
*340 FILLER_0_20_29
*341 FILLER_0_20_49
*342 FILLER_0_20_66
*343 FILLER_0_21_100
*344 FILLER_0_21_109
*345 FILLER_0_21_113
*346 FILLER_0_21_118
*347 FILLER_0_21_29
*348 FILLER_0_21_50
*349 FILLER_0_21_55
*350 FILLER_0_21_60
*351 FILLER_0_21_64
*352 FILLER_0_21_73
*353 FILLER_0_21_82
*354 FILLER_0_21_85
*355 FILLER_0_21_91
*356 FILLER_0_2_115
*357 FILLER_0_2_29
*358 FILLER_0_2_37
*359 FILLER_0_2_71
*360 FILLER_0_2_83
*361 FILLER_0_2_85
*362 FILLER_0_2_97
*363 FILLER_0_3_105
*364 FILLER_0_3_111
*365 FILLER_0_3_113
*366 FILLER_0_3_125
*367 FILLER_0_3_26
*368 FILLER_0_3_34
*369 FILLER_0_3_51
*370 FILLER_0_3_55
*371 FILLER_0_3_57
*372 FILLER_0_3_69
*373 FILLER_0_3_81
*374 FILLER_0_3_9
*375 FILLER_0_3_93
*376 FILLER_0_4_109
*377 FILLER_0_4_121
*378 FILLER_0_4_20
*379 FILLER_0_4_29
*380 FILLER_0_4_3
*381 FILLER_0_4_37
*382 FILLER_0_4_48
*383 FILLER_0_4_60
*384 FILLER_0_4_72
*385 FILLER_0_4_85
*386 FILLER_0_4_97
*387 FILLER_0_5_102
*388 FILLER_0_5_110
*389 FILLER_0_5_113
*390 FILLER_0_5_125
*391 FILLER_0_5_33
*392 FILLER_0_5_62
*393 FILLER_0_5_73
*394 FILLER_0_5_85
*395 FILLER_0_5_9
*396 FILLER_0_6_105
*397 FILLER_0_6_109
*398 FILLER_0_6_126
*399 FILLER_0_6_20
*400 FILLER_0_6_29
*401 FILLER_0_6_3
*402 FILLER_0_6_33
*403 FILLER_0_6_58
*404 FILLER_0_6_73
*405 FILLER_0_7_109
*406 FILLER_0_7_113
*407 FILLER_0_7_125
*408 FILLER_0_7_21
*409 FILLER_0_7_3
*410 FILLER_0_7_46
*411 FILLER_0_7_73
*412 FILLER_0_7_85
*413 FILLER_0_7_97
*414 FILLER_0_8_105
*415 FILLER_0_8_122
*416 FILLER_0_8_126
*417 FILLER_0_8_21
*418 FILLER_0_8_27
*419 FILLER_0_8_29
*420 FILLER_0_8_41
*421 FILLER_0_8_65
*422 FILLER_0_8_83
*423 FILLER_0_8_85
*424 FILLER_0_8_9
*425 FILLER_0_8_97
*426 FILLER_0_9_105
*427 FILLER_0_9_111
*428 FILLER_0_9_113
*429 FILLER_0_9_125
*430 FILLER_0_9_19
*431 FILLER_0_9_31
*432 FILLER_0_9_43
*433 FILLER_0_9_55
*434 FILLER_0_9_57
*435 FILLER_0_9_65
*436 FILLER_0_9_93
*437 PHY_EDGE_ROW_0_Left_22
*438 PHY_EDGE_ROW_0_Right_0
*439 PHY_EDGE_ROW_10_Left_32
*440 PHY_EDGE_ROW_10_Right_10
*441 PHY_EDGE_ROW_11_Left_33
*442 PHY_EDGE_ROW_11_Right_11
*443 PHY_EDGE_ROW_12_Left_34
*444 PHY_EDGE_ROW_12_Right_12
*445 PHY_EDGE_ROW_13_Left_35
*446 PHY_EDGE_ROW_13_Right_13
*447 PHY_EDGE_ROW_14_Left_36
*448 PHY_EDGE_ROW_14_Right_14
*449 PHY_EDGE_ROW_15_Left_37
*450 PHY_EDGE_ROW_15_Right_15
*451 PHY_EDGE_ROW_16_Left_38
*452 PHY_EDGE_ROW_16_Right_16
*453 PHY_EDGE_ROW_17_Left_39
*454 PHY_EDGE_ROW_17_Right_17
*455 PHY_EDGE_ROW_18_Left_40
*456 PHY_EDGE_ROW_18_Right_18
*457 PHY_EDGE_ROW_19_Left_41
*458 PHY_EDGE_ROW_19_Right_19
*459 PHY_EDGE_ROW_1_Left_23
*460 PHY_EDGE_ROW_1_Right_1
*461 PHY_EDGE_ROW_20_Left_42
*462 PHY_EDGE_ROW_20_Right_20
*463 PHY_EDGE_ROW_21_Left_43
*464 PHY_EDGE_ROW_21_Right_21
*465 PHY_EDGE_ROW_2_Left_24
*466 PHY_EDGE_ROW_2_Right_2
*467 PHY_EDGE_ROW_3_Left_25
*468 PHY_EDGE_ROW_3_Right_3
*469 PHY_EDGE_ROW_4_Left_26
*470 PHY_EDGE_ROW_4_Right_4
*471 PHY_EDGE_ROW_5_Left_27
*472 PHY_EDGE_ROW_5_Right_5
*473 PHY_EDGE_ROW_6_Left_28
*474 PHY_EDGE_ROW_6_Right_6
*475 PHY_EDGE_ROW_7_Left_29
*476 PHY_EDGE_ROW_7_Right_7
*477 PHY_EDGE_ROW_8_Left_30
*478 PHY_EDGE_ROW_8_Right_8
*479 PHY_EDGE_ROW_9_Left_31
*480 PHY_EDGE_ROW_9_Right_9
*481 TAP_TAPCELL_ROW_0_44
*482 TAP_TAPCELL_ROW_0_45
*483 TAP_TAPCELL_ROW_0_46
*484 TAP_TAPCELL_ROW_0_47
*485 TAP_TAPCELL_ROW_10_66
*486 TAP_TAPCELL_ROW_10_67
*487 TAP_TAPCELL_ROW_11_68
*488 TAP_TAPCELL_ROW_11_69
*489 TAP_TAPCELL_ROW_12_70
*490 TAP_TAPCELL_ROW_12_71
*491 TAP_TAPCELL_ROW_13_72
*492 TAP_TAPCELL_ROW_13_73
*493 TAP_TAPCELL_ROW_14_74
*494 TAP_TAPCELL_ROW_14_75
*495 TAP_TAPCELL_ROW_15_76
*496 TAP_TAPCELL_ROW_15_77
*497 TAP_TAPCELL_ROW_16_78
*498 TAP_TAPCELL_ROW_16_79
*499 TAP_TAPCELL_ROW_17_80
*500 TAP_TAPCELL_ROW_17_81
*501 TAP_TAPCELL_ROW_18_82
*502 TAP_TAPCELL_ROW_18_83
*503 TAP_TAPCELL_ROW_19_84
*504 TAP_TAPCELL_ROW_19_85
*505 TAP_TAPCELL_ROW_1_48
*506 TAP_TAPCELL_ROW_1_49
*507 TAP_TAPCELL_ROW_20_86
*508 TAP_TAPCELL_ROW_20_87
*509 TAP_TAPCELL_ROW_21_88
*510 TAP_TAPCELL_ROW_21_89
*511 TAP_TAPCELL_ROW_21_90
*512 TAP_TAPCELL_ROW_21_91
*513 TAP_TAPCELL_ROW_2_50
*514 TAP_TAPCELL_ROW_2_51
*515 TAP_TAPCELL_ROW_3_52
*516 TAP_TAPCELL_ROW_3_53
*517 TAP_TAPCELL_ROW_4_54
*518 TAP_TAPCELL_ROW_4_55
*519 TAP_TAPCELL_ROW_5_56
*520 TAP_TAPCELL_ROW_5_57
*521 TAP_TAPCELL_ROW_6_58
*522 TAP_TAPCELL_ROW_6_59
*523 TAP_TAPCELL_ROW_7_60
*524 TAP_TAPCELL_ROW_7_61
*525 TAP_TAPCELL_ROW_8_62
*526 TAP_TAPCELL_ROW_8_63
*527 TAP_TAPCELL_ROW_9_64
*528 TAP_TAPCELL_ROW_9_65
*529 _069_
*530 _070_
*531 _071_
*532 _072_
*533 _073_
*534 _074_
*535 _075_
*536 _076_
*537 _077_
*538 _078_
*539 _079_
*540 _080_
*541 _081_
*542 _082_
*543 _083_
*544 _084_
*545 _085_
*546 _086_
*547 _087_
*548 _088_
*549 _089_
*550 _090_
*551 _091_
*552 _092_
*553 _093_
*554 _094_
*555 _095_
*556 _096_
*557 _097_
*558 _098_
*559 _099_
*560 _100_
*561 _101_
*562 _102_
*563 _103_
*564 _104_
*565 _105_
*566 _106_
*567 _107_
*568 _108_
*569 _109_
*570 _110_
*571 _111_
*572 _112_
*573 _113_
*574 _114_
*575 _115_
*576 _116_
*577 _117_
*578 _118_
*579 _119_
*580 _120_
*581 _121_
*582 _122_
*583 _123_
*584 _124_
*585 _125_
*586 _126_
*587 _127_
*588 _128_
*589 _129_
*590 _130_
*591 _131_
*592 _132_
*593 _133_
*594 _134_
*595 _135_
*596 _136_
*597 _137_
*598 _138_
*599 _139_
*600 _140_
*601 _141_
*602 _142_
*603 _143_
*604 _144_
*605 _145_
*606 _146_
*607 _147_
*608 _148_
*609 _149_
*610 _150_
*611 _151_
*612 _152_
*613 _153_
*614 _154_
*615 _155_
*616 _156_
*617 _157_
*618 _158_
*619 _159_
*620 _160_
*621 _161_
*622 _162_
*623 _163_
*624 _164_
*625 _165_
*626 _166_
*627 _167_
*628 _168_
*629 _169_
*630 _170_
*631 _171_
*632 _172_
*633 _173_
*634 _174_
*635 _175_
*636 _176_
*637 _177_
*638 _178_
*639 _179_
*640 _180_
*641 _181_
*642 _182_
*643 _183_
*644 _184_
*645 _185_
*646 _186_
*647 _187_
*648 _188_
*649 _189_
*650 _190_
*651 _191_
*652 _192_
*653 _193_
*654 _194_
*655 _195_
*656 _196_
*657 _197_
*658 _198_
*659 _199_
*660 _200_
*661 _201_
*662 _202_
*663 _203_
*664 _204_
*665 clkbuf_0_clk
*666 clkbuf_2_0__f_clk
*667 clkbuf_2_1__f_clk
*668 clkbuf_2_2__f_clk
*669 clkbuf_2_3__f_clk
*670 clkload0
*671 clkload1
*672 clkload2
*673 input1
*674 input10
*675 input11
*676 input12
*677 input13
*678 input14
*679 input15
*680 input16
*681 input17
*682 input18
*683 input19
*684 input2
*685 input20
*686 input21
*687 input22
*688 input23
*689 input24
*690 input25
*691 input26
*692 input27
*693 input28
*694 input29
*695 input3
*696 input30
*697 input31
*698 input32
*699 input33
*700 input4
*701 input5
*702 input6
*703 input7
*704 input8
*705 input9
*706 output34
*707 output35
*708 output36
*709 output37
*710 output38
*711 output39
*712 output40
*713 output41
*714 output42
*715 output43
*716 output44
*717 output45
*718 output46
*719 output47
*720 output48
*721 output49
*722 output50
*723 rebuffer1
*724 rebuffer2
*725 rebuffer3
*726 rebuffer4
*727 rebuffer5
*728 rebuffer6
*729 rebuffer7
*730 rebuffer8

*PORTS
a1 I
a10 I
a11 I
a12 I
a13 I
a14 I
a15 I
a16 I
a2 I
a3 I
a4 I
a5 I
a6 I
a7 I
a8 I
a9 I
b1 I
b10 I
b11 I
b12 I
b13 I
b14 I
b15 I
b16 I
b2 I
b3 I
b4 I
b5 I
b6 I
b7 I
b8 I
b9 I
cin I
clk I
cout O
s1 O
s10 O
s11 O
s12 O
s13 O
s14 O
s15 O
s16 O
s2 O
s3 O
s4 O
s5 O
s6 O
s7 O
s8 O
s9 O

*D_NET *3 0.00272947
*CONN
*P a1 I
*I *673:A I *D sky130_fd_sc_hd__clkbuf_1
*CAP
1 a1 0.00111389
2 *673:A 0
3 *3:15 0.00111389
4 *3:15 *631:CLK 0.000273372
5 *3:15 *631:D 5.73018e-05
6 *3:15 *11:9 0
7 *3:15 *37:12 2.93431e-05
8 *3:15 *155:8 0.000141677
*RES
1 a1 *3:15 35.7143 
2 *3:15 *673:A 23 
*END

*D_NET *4 0.00103781
*CONN
*P a10 I
*I *684:A I *D sky130_fd_sc_hd__clkbuf_1
*CAP
1 a10 0.000509936
2 *684:A 0.000509936
3 *684:A *680:A 0
4 *684:A *5:13 0
5 *684:A *139:10 1.79384e-05
*RES
1 a10 *684:A 48.2743 
*END

*D_NET *5 0.00125904
*CONN
*P a11 I
*I *695:A I *D sky130_fd_sc_hd__clkbuf_1
*CAP
1 a11 0.000629518
2 *695:A 0
3 *5:13 0.000629518
4 *5:13 *700:A 0
5 *684:A *5:13 0
*RES
1 a11 *5:13 27.47 
2 *5:13 *695:A 23 
*END

*D_NET *6 0.00101014
*CONN
*P a12 I
*I *700:A I *D sky130_fd_sc_hd__clkbuf_1
*CAP
1 a12 0.00050507
2 *700:A 0.00050507
3 *700:A *701:A 0
4 *5:13 *700:A 0
*RES
1 a12 *700:A 48.2743 
*END

*D_NET *7 0.00101691
*CONN
*P a13 I
*I *701:A I *D sky130_fd_sc_hd__clkbuf_1
*CAP
1 a13 0.000506598
2 *701:A 0.000506598
3 *701:A *702:A 0
4 *701:A *182:10 3.7122e-06
5 *700:A *701:A 0
*RES
1 a13 *701:A 48.2743 
*END

*D_NET *8 0.00105106
*CONN
*P a14 I
*I *702:A I *D sky130_fd_sc_hd__clkbuf_1
*CAP
1 a14 0.000485992
2 *702:A 0.000485992
3 *702:A *703:A 0
4 *702:A *182:10 1.92253e-05
5 *702:A *184:8 2.93845e-05
6 *702:A *184:14 3.04661e-05
7 *701:A *702:A 0
*RES
1 a14 *702:A 48.2743 
*END

*D_NET *9 0.00110652
*CONN
*P a15 I
*I *703:A I *D sky130_fd_sc_hd__clkbuf_1
*CAP
1 a15 0.000503172
2 *703:A 0.000503172
3 *703:A *10:11 0.00010018
4 *703:A *184:14 0
5 *702:A *703:A 0
*RES
1 a15 *703:A 48.4193 
*END

*D_NET *10 0.00140448
*CONN
*P a16 I
*I *704:A I *D sky130_fd_sc_hd__clkbuf_1
*CAP
1 a16 0.000652147
2 *704:A 0
3 *10:11 0.000652147
4 *703:A *10:11 0.00010018
*RES
1 a16 *10:11 28.2779 
2 *10:11 *704:A 23 
*END

*D_NET *11 0.00152865
*CONN
*P a2 I
*I *705:A I *D sky130_fd_sc_hd__clkbuf_1
*CAP
1 a2 0.000593161
2 *705:A 0
3 *11:9 0.000593161
4 *11:9 *631:CLK 0
5 *11:9 *713:A 5.45644e-05
6 *11:9 *12:13 0
7 *11:9 *45:10 0.000149047
8 *11:9 *215:16 0.000138718
9 *3:15 *11:9 0
*RES
1 a2 *11:9 27.9671 
2 *11:9 *705:A 23 
*END

*D_NET *12 0.00190937
*CONN
*P a3 I
*I *674:A I *D sky130_fd_sc_hd__clkbuf_1
*CAP
1 a3 0.000734277
2 *674:A 0
3 *12:13 0.000734277
4 *12:13 *631:CLK 0.000221517
5 *12:13 *634:D 9.91548e-05
6 *12:13 *675:A 0
7 *12:13 *713:A 5.76359e-05
8 *12:13 *37:12 0
9 *12:13 *126:80 3.67392e-05
10 *12:13 *128:16 0
11 *12:13 *163:14 2.57686e-05
12 *12:13 *215:16 0
13 *11:9 *12:13 0
*RES
1 a3 *12:13 30.1629 
2 *12:13 *674:A 23 
*END

*D_NET *13 0.00116935
*CONN
*P a4 I
*I *675:A I *D sky130_fd_sc_hd__clkbuf_1
*CAP
1 a4 0.000528687
2 *675:A 0.000528687
3 *675:A *676:A 0
4 *675:A *37:12 5.79559e-05
5 *675:A *155:8 5.40241e-05
6 *12:13 *675:A 0
*RES
1 a4 *675:A 49.0407 
*END

*D_NET *14 0.000839943
*CONN
*P a5 I
*I *676:A I *D sky130_fd_sc_hd__clkbuf_1
*CAP
1 a5 0.000419972
2 *676:A 0.000419972
3 *676:A *15:13 0
4 *676:A *188:18 0
5 *675:A *676:A 0
*RES
1 a5 *676:A 46.7 
*END

*D_NET *15 0.00272919
*CONN
*P a6 I
*I *677:A I *D sky130_fd_sc_hd__clkbuf_1
*CAP
1 a6 0.000919624
2 *677:A 0
3 *15:13 0.000919624
4 *15:13 *678:A 0
5 *15:13 *679:A 0.000141869
6 *15:13 *215:16 0.000748073
7 *676:A *15:13 0
*RES
1 a6 *15:13 47.0893 
2 *15:13 *677:A 38 
*END

*D_NET *16 0.00114919
*CONN
*P a7 I
*I *678:A I *D sky130_fd_sc_hd__clkbuf_1
*CAP
1 a7 0.000521902
2 *678:A 0.000521902
3 *678:A *679:A 0
4 *678:A *126:172 1.24376e-05
5 *678:A *132:10 9.29483e-05
6 *678:A *188:18 0
7 *15:13 *678:A 0
*RES
1 a7 *678:A 48.4193 
*END

*D_NET *17 0.00110701
*CONN
*P a8 I
*I *679:A I *D sky130_fd_sc_hd__clkbuf_1
*CAP
1 a8 0.000482569
2 *679:A 0.000482569
3 *679:A *680:A 0
4 *679:A *215:10 0
5 *678:A *679:A 0
6 *15:13 *679:A 0.000141869
*RES
1 a8 *679:A 48.2743 
*END

*D_NET *18 0.00103528
*CONN
*P a9 I
*I *680:A I *D sky130_fd_sc_hd__clkbuf_1
*CAP
1 a9 0.000475072
2 *680:A 0.000475072
3 *680:A *215:10 8.51329e-05
4 *679:A *680:A 0
5 *684:A *680:A 0
*RES
1 a9 *680:A 48.2743 
*END

*D_NET *19 0.00243821
*CONN
*P b1 I
*I *681:A I *D sky130_fd_sc_hd__clkbuf_1
*CAP
1 b1 0.00101913
2 *681:A 0
3 *19:15 0.00101913
4 *19:15 s1 0
5 *19:15 *716:A 9.66668e-05
6 *19:15 *27:19 0
7 *19:15 *47:10 0.000303278
8 *19:15 *48:16 0
9 *19:15 *166:8 0
*RES
1 b1 *19:15 36.5843 
2 *19:15 *681:A 23 
*END

*D_NET *20 0.00136749
*CONN
*P b10 I
*I *682:A I *D sky130_fd_sc_hd__clkbuf_1
*CAP
1 b10 0.000619678
2 *682:A 0
3 *20:9 0.000619678
4 *20:9 *698:A 0
5 *20:9 *21:17 0
6 *20:9 *137:10 9.59279e-05
7 *20:9 *195:8 3.22051e-05
*RES
1 b10 *20:9 28.1329 
2 *20:9 *682:A 23 
*END

*D_NET *21 0.00112489
*CONN
*P b11 I
*I *683:A I *D sky130_fd_sc_hd__clkbuf_1
*CAP
1 b11 0.000562445
2 *683:A 0
3 *21:17 0.000562445
4 *21:17 *685:A 0
5 *20:9 *21:17 0
*RES
1 b11 *21:17 28.2157 
2 *21:17 *683:A 23 
*END

*D_NET *22 0.00100551
*CONN
*P b12 I
*I *685:A I *D sky130_fd_sc_hd__clkbuf_1
*CAP
1 b12 0.000502753
2 *685:A 0.000502753
3 *685:A *686:A 0
4 *21:17 *685:A 0
*RES
1 b12 *685:A 48.2743 
*END

*D_NET *23 0.00100427
*CONN
*P b13 I
*I *686:A I *D sky130_fd_sc_hd__clkbuf_1
*CAP
1 b13 0.000502134
2 *686:A 0.000502134
3 *686:A *687:A 0
4 *685:A *686:A 0
*RES
1 b13 *686:A 48.2743 
*END

*D_NET *24 0.00100869
*CONN
*P b14 I
*I *687:A I *D sky130_fd_sc_hd__clkbuf_1
*CAP
1 b14 0.000495172
2 *687:A 0.000495172
3 *687:A *688:A 0
4 *687:A *142:8 1.83408e-05
5 *686:A *687:A 0
*RES
1 b14 *687:A 48.2743 
*END

*D_NET *25 0.00110117
*CONN
*P b15 I
*I *688:A I *D sky130_fd_sc_hd__clkbuf_1
*CAP
1 b15 0.000500494
2 *688:A 0.000500494
3 *688:A *26:11 0.00010018
4 *687:A *688:A 0
*RES
1 b15 *688:A 48.4193 
*END

*D_NET *26 0.00141331
*CONN
*P b16 I
*I *689:A I *D sky130_fd_sc_hd__clkbuf_1
*CAP
1 b16 0.000656563
2 *689:A 0
3 *26:11 0.000656563
4 *688:A *26:11 0.00010018
*RES
1 b16 *26:11 28.2779 
2 *26:11 *689:A 23 
*END

*D_NET *27 0.00227411
*CONN
*P b2 I
*I *690:A I *D sky130_fd_sc_hd__clkbuf_1
*CAP
1 b2 0.000941675
2 *690:A 0
3 *27:19 0.000941675
4 *27:19 s1 0.000110334
5 *27:19 *615:D 9.92992e-06
6 *27:19 *691:A 0.000187017
7 *27:19 *46:8 2.26497e-05
8 *27:19 *156:10 8.91468e-07
9 *27:19 *218:24 5.99368e-05
10 *19:15 *27:19 0
*RES
1 b2 *27:19 33.1457 
2 *27:19 *690:A 23 
*END

*D_NET *28 0.00134617
*CONN
*P b3 I
*I *691:A I *D sky130_fd_sc_hd__clkbuf_1
*CAP
1 b3 0.000529538
2 *691:A 0.000529538
3 *691:A *692:A 0
4 *691:A *218:24 0.00010008
5 *27:19 *691:A 0.000187017
*RES
1 b3 *691:A 49.9936 
*END

*D_NET *29 0.0010314
*CONN
*P b4 I
*I *692:A I *D sky130_fd_sc_hd__clkbuf_1
*CAP
1 b4 0.000512615
2 *692:A 0.000512615
3 *692:A *693:A 0
4 *692:A *218:24 6.17437e-06
5 *691:A *692:A 0
*RES
1 b4 *692:A 48.5643 
*END

*D_NET *30 0.00118702
*CONN
*P b5 I
*I *693:A I *D sky130_fd_sc_hd__clkbuf_1
*CAP
1 b5 0.000544269
2 *693:A 0.000544269
3 *693:A *652:D 9.84794e-05
4 *693:A *31:11 0
5 *692:A *693:A 0
*RES
1 b5 *693:A 49.5171 
*END

*D_NET *31 0.00198029
*CONN
*P b6 I
*I *694:A I *D sky130_fd_sc_hd__clkbuf_1
*CAP
1 b6 0.000886844
2 *694:A 0
3 *31:11 0.000886844
4 *31:11 *656:D 0
5 *31:11 *696:A 0.000142585
6 *31:11 *149:10 3.24862e-05
7 *31:11 *187:10 3.15313e-05
8 *693:A *31:11 0
*RES
1 b6 *31:11 32.0893 
2 *31:11 *694:A 23 
*END

*D_NET *32 0.00110106
*CONN
*P b7 I
*I *696:A I *D sky130_fd_sc_hd__clkbuf_1
*CAP
1 b7 0.000466437
2 *696:A 0.000466437
3 *696:A *697:A 0
4 *696:A *149:10 2.18888e-05
5 *696:A *187:10 3.7122e-06
6 *31:11 *696:A 0.000142585
*RES
1 b7 *696:A 48.2743 
*END

*D_NET *33 0.00105177
*CONN
*P b8 I
*I *697:A I *D sky130_fd_sc_hd__clkbuf_1
*CAP
1 b8 0.000525885
2 *697:A 0.000525885
3 *697:A *698:A 0
4 *696:A *697:A 0
*RES
1 b8 *697:A 48.2743 
*END

*D_NET *34 0.00123876
*CONN
*P b9 I
*I *698:A I *D sky130_fd_sc_hd__clkbuf_1
*CAP
1 b9 0.000519201
2 *698:A 0.000519201
3 *698:A *656:D 0.00010018
4 *698:A *125:56 0.00010018
5 *697:A *698:A 0
6 *20:9 *698:A 0
*RES
1 b9 *698:A 49.3721 
*END

*D_NET *35 0.000553498
*CONN
*P cin I
*I *699:A I *D sky130_fd_sc_hd__clkbuf_1
*CAP
1 cin 0.00025737
2 *699:A 0.00025737
3 *699:A *183:16 3.87577e-05
*RES
1 cin *699:A 47.7832 
*END

*D_NET *36 0.00764855
*CONN
*P clk I
*I *665:A I *D sky130_fd_sc_hd__clkbuf_16
*CAP
1 clk 0.00377602
2 *665:A 0
3 *36:23 0.00377602
4 *36:23 *122:23 4.91451e-05
5 *36:23 *194:14 4.73716e-05
*RES
1 clk *36:23 48.4503 
2 *36:23 *665:A 23 
*END

*D_NET *37 0.0023163
*CONN
*P cout O
*I *706:X O *D sky130_fd_sc_hd__buf_1
*CAP
1 cout 0.00074699
2 *706:X 0.000319054
3 *37:12 0.00106604
4 cout s16 0
5 *37:12 *130:10 5.40337e-05
6 *37:12 *155:8 4.288e-05
7 *675:A *37:12 5.79559e-05
8 *3:15 *37:12 2.93431e-05
9 *12:13 *37:12 0
*RES
1 *706:X *37:12 44.5146 
2 *37:12 cout 10.2176 
*END

*D_NET *38 0.00221631
*CONN
*P s1 O
*I *707:X O *D sky130_fd_sc_hd__buf_1
*CAP
1 s1 0.000734819
2 *707:X 7.98873e-05
3 *38:8 0.000814707
4 s1 s2 0
5 s1 *46:8 0.000227526
6 s1 *156:10 5.5403e-05
7 s1 *166:8 0.000135343
8 *38:8 *167:12 5.82853e-05
9 *19:15 s1 0
10 *27:19 s1 0.000110334
*RES
1 *707:X *38:8 39.0979 
2 *38:8 s1 21.8419 
*END

*D_NET *39 0.000760948
*CONN
*P s10 O
*I *708:X O *D sky130_fd_sc_hd__buf_1
*CAP
1 s10 4.63699e-05
2 *708:X 0.000324435
3 *39:16 0.000370805
4 s10 s11 0
5 s10 s9 0
6 s10 *53:16 5.01799e-06
7 *39:16 s11 8.14539e-06
8 *39:16 *708:A 6.17437e-06
*RES
1 *708:X *39:16 49.9587 
2 *39:16 s10 0.199733 
*END

*D_NET *40 0.000796665
*CONN
*P s11 O
*I *709:X O *D sky130_fd_sc_hd__buf_1
*CAP
1 s11 0.00039426
2 *709:X 0.00039426
3 s11 s12 0
4 s11 *158:24 0
5 s10 s11 0
6 *39:16 s11 8.14539e-06
*RES
1 *709:X s11 48.7451 
*END

*D_NET *41 0.000629944
*CONN
*P s12 O
*I *710:X O *D sky130_fd_sc_hd__buf_1
*CAP
1 s12 0.000307288
2 *710:X 0.000307288
3 s12 s13 0
4 s12 *159:10 1.5367e-05
5 s11 s12 0
*RES
1 *710:X s12 48.3188 
*END

*D_NET *42 0.000741892
*CONN
*P s13 O
*I *711:X O *D sky130_fd_sc_hd__buf_1
*CAP
1 s13 0.000109732
2 *711:X 0.000258235
3 *42:10 0.000367968
4 s13 s14 5.95675e-06
5 s13 *43:16 0
6 *42:10 *43:16 0
7 s12 s13 0
*RES
1 *711:X *42:10 42.0289 
2 *42:10 s13 8.4816 
*END

*D_NET *43 0.000730345
*CONN
*P s14 O
*I *712:X O *D sky130_fd_sc_hd__buf_1
*CAP
1 s14 4.35807e-05
2 *712:X 0.000316104
3 *43:16 0.000359685
4 s14 s15 0
5 *43:16 s15 5.01799e-06
6 s13 s14 5.95675e-06
7 s13 *43:16 0
8 *42:10 *43:16 0
*RES
1 *712:X *43:16 49.9587 
2 *43:16 s14 0.199733 
*END

*D_NET *44 0.000765067
*CONN
*P s15 O
*I *713:X O *D sky130_fd_sc_hd__buf_1
*CAP
1 s15 0.000111162
2 *713:X 0.000247288
3 *44:10 0.00035845
4 s15 s16 1.05236e-05
5 *44:10 *713:A 3.26241e-05
6 *44:10 *45:10 0
7 s14 s15 0
8 *43:16 s15 5.01799e-06
*RES
1 *713:X *44:10 42.0289 
2 *44:10 s15 8.4816 
*END

*D_NET *45 0.0016351
*CONN
*P s16 O
*I *714:X O *D sky130_fd_sc_hd__buf_1
*CAP
1 s16 0.000298096
2 *714:X 0.000361057
3 *45:10 0.000659153
4 *45:10 *162:16 1.73399e-05
5 *45:10 *185:8 0.000139882
6 cout s16 0
7 s15 s16 1.05236e-05
8 *11:9 *45:10 0.000149047
9 *44:10 *45:10 0
*RES
1 *714:X *45:10 45.2811 
2 *45:10 s16 8.9296 
*END

*D_NET *46 0.00154014
*CONN
*P s2 O
*I *715:X O *D sky130_fd_sc_hd__buf_1
*CAP
1 s2 0.000325064
2 *715:X 0.00016875
3 *46:8 0.000493814
4 s2 s3 0
5 *46:8 *156:10 0.000302339
6 *46:8 *218:24 0
7 s1 s2 0
8 s1 *46:8 0.000227526
9 *27:19 *46:8 2.26497e-05
*RES
1 *715:X *46:8 43.9554 
2 *46:8 s2 9.01547 
*END

*D_NET *47 0.000987995
*CONN
*P s3 O
*I *716:X O *D sky130_fd_sc_hd__buf_1
*CAP
1 s3 0.00012313
2 *716:X 0.000216719
3 *47:10 0.000339849
4 s3 s4 5.01799e-06
5 s2 s3 0
6 *19:15 *47:10 0.000303278
*RES
1 *716:X *47:10 42.0289 
2 *47:10 s3 8.4816 
*END

*D_NET *48 0.000752945
*CONN
*P s4 O
*I *717:X O *D sky130_fd_sc_hd__buf_1
*CAP
1 s4 4.63699e-05
2 *717:X 0.000325085
3 *48:16 0.000371454
4 s4 s5 0
5 *48:16 s5 5.01799e-06
6 s3 s4 5.01799e-06
7 *19:15 *48:16 0
*RES
1 *717:X *48:16 49.9587 
2 *48:16 s4 0.199733 
*END

*D_NET *49 0.00101004
*CONN
*P s5 O
*I *718:X O *D sky130_fd_sc_hd__buf_1
*CAP
1 s5 0.000118228
2 *718:X 0.000367111
3 *49:10 0.000485339
4 s5 s6 8.14539e-06
5 *49:10 s6 6.71408e-06
6 *49:10 *719:A 1.94812e-05
7 *49:10 *169:8 0
8 s4 s5 0
9 *48:16 s5 5.01799e-06
*RES
1 *718:X *49:10 43.4582 
2 *49:10 s5 8.4816 
*END

*D_NET *50 0.000662641
*CONN
*P s6 O
*I *719:X O *D sky130_fd_sc_hd__buf_1
*CAP
1 s6 0.000323891
2 *719:X 0.000323891
3 s6 s7 0
4 s6 *136:12 0
5 s5 s6 8.14539e-06
6 *49:10 s6 6.71408e-06
*RES
1 *719:X s6 48.3188 
*END

*D_NET *51 0.000950169
*CONN
*P s7 O
*I *720:X O *D sky130_fd_sc_hd__buf_1
*CAP
1 s7 0.00010757
2 *720:X 0.000362252
3 *51:10 0.000469823
4 s7 s8 1.05236e-05
5 s6 s7 0
*RES
1 *720:X *51:10 43.4582 
2 *51:10 s7 8.4816 
*END

*D_NET *52 0.000618382
*CONN
*P s8 O
*I *721:X O *D sky130_fd_sc_hd__buf_1
*CAP
1 s8 0.000288636
2 *721:X 0.000288636
3 s8 s9 0
4 s8 *53:16 0
5 s8 *171:10 3.05864e-05
6 s7 s8 1.05236e-05
*RES
1 *721:X s8 47.7832 
*END

*D_NET *53 0.000664447
*CONN
*P s9 O
*I *722:X O *D sky130_fd_sc_hd__buf_1
*CAP
1 s9 4.64007e-05
2 *722:X 0.000283314
3 *53:16 0.000329714
4 s10 s9 0
5 s10 *53:16 5.01799e-06
6 s8 s9 0
7 s8 *53:16 0
*RES
1 *722:X *53:16 49.9587 
2 *53:16 s9 0.199733 
*END

*D_NET *54 0.00210796
*CONN
*I *584:A I *D sky130_fd_sc_hd__nand2_1
*I *581:A2 I *D sky130_fd_sc_hd__a31o_1
*I *578:X O *D sky130_fd_sc_hd__or2_1
*CAP
1 *584:A 2.3574e-05
2 *581:A2 0.000358796
3 *578:X 0.000276864
4 *54:12 0.000382369
5 *54:10 0.000276864
6 *581:A2 *581:A1 6.62755e-05
7 *581:A2 *586:A1_N 1.34993e-05
8 *581:A2 *586:B1 7.74735e-05
9 *581:A2 *586:B2 0.00020673
10 *584:A *586:B1 5.58003e-05
11 *54:10 *582:A1 9.5877e-05
12 *54:10 *584:B 5.71002e-06
13 *54:10 *585:B 1.12863e-05
14 *54:10 *586:A1_N 0.000133649
15 *54:10 *56:8 1.89178e-05
16 *54:10 *56:23 5.50049e-05
17 *54:10 *59:23 4.92706e-05
*RES
1 *578:X *54:10 42.4329 
2 *54:10 *54:12 15 
3 *54:12 *581:A2 30.5607 
4 *54:12 *584:A 23.6214 
*END

*D_NET *55 0.000757949
*CONN
*I *581:A3 I *D sky130_fd_sc_hd__a31o_1
*I *579:X O *D sky130_fd_sc_hd__or2b_1
*CAP
1 *581:A3 0
2 *579:X 0.000230387
3 *55:10 0.000230387
4 *55:10 *56:23 0.000184407
5 *55:10 *122:23 4.89774e-05
6 *55:10 *198:30 6.37905e-05
*RES
1 *579:X *55:10 41.9564 
2 *55:10 *581:A3 38 
*END

*D_NET *56 0.00241876
*CONN
*I *581:B1 I *D sky130_fd_sc_hd__a31o_1
*I *582:B1 I *D sky130_fd_sc_hd__a21o_1
*I *580:X O *D sky130_fd_sc_hd__and2_1
*CAP
1 *581:B1 0
2 *582:B1 0
3 *580:X 0.000282341
4 *56:23 0.000460214
5 *56:8 0.000742555
6 *56:8 *579:B_N 1.05841e-05
7 *56:8 *580:A 0.000142585
8 *56:8 *582:A1 5.97178e-05
9 *56:23 *579:B_N 0.000283336
10 *56:23 *580:A 0
11 *56:23 *192:10 0
12 *56:23 *198:30 0.000167123
13 *56:23 *227:8 1.19692e-05
14 *54:10 *56:8 1.89178e-05
15 *54:10 *56:23 5.50049e-05
16 *55:10 *56:23 0.000184407
*RES
1 *580:X *56:8 28.2821 
2 *56:8 *582:B1 23 
3 *56:8 *56:23 40.0464 
4 *56:23 *581:B1 23 
*END

*D_NET *57 0.000993788
*CONN
*I *586:A1_N I *D sky130_fd_sc_hd__o2bb2a_1
*I *585:B I *D sky130_fd_sc_hd__or3_4
*I *582:X O *D sky130_fd_sc_hd__a21o_1
*CAP
1 *586:A1_N 0.000103861
2 *585:B 0.000194078
3 *582:X 0
4 *57:6 0.000297939
5 *585:B *575:B 5.81185e-05
6 *585:B *59:23 0.000100761
7 *585:B *121:29 5.34638e-05
8 *585:B *194:14 0
9 *586:A1_N *586:B1 2.71329e-05
10 *586:A1_N *194:14 0
11 *581:A2 *586:A1_N 1.34993e-05
12 *54:10 *585:B 1.12863e-05
13 *54:10 *586:A1_N 0.000133649
*RES
1 *582:X *57:6 38 
2 *57:6 *585:B 41.9357 
3 *57:6 *586:A1_N 40.2216 
*END

*D_NET *58 0.00252308
*CONN
*I *584:B I *D sky130_fd_sc_hd__nand2_1
*I *586:A2_N I *D sky130_fd_sc_hd__o2bb2a_1
*I *583:X O *D sky130_fd_sc_hd__or2_1
*CAP
1 *584:B 2.51204e-05
2 *586:A2_N 0.000197643
3 *583:X 0.000564059
4 *58:10 0.000786822
5 *584:B *59:23 2.45554e-05
6 *584:B *202:10 6.4549e-05
7 *586:A2_N *586:B1 0.000180818
8 *58:10 *575:B 7.61229e-06
9 *58:10 *583:B 0.000336342
10 *58:10 *59:23 0.000202994
11 *58:10 *121:10 2.75275e-06
12 *58:10 *202:10 0.000124102
13 *54:10 *584:B 5.71002e-06
*RES
1 *583:X *58:10 47.8807 
2 *58:10 *586:A2_N 40.5271 
3 *58:10 *584:B 38.8493 
*END

*D_NET *59 0.00187337
*CONN
*I *585:C I *D sky130_fd_sc_hd__or3_4
*I *586:B1 I *D sky130_fd_sc_hd__o2bb2a_1
*I *584:Y O *D sky130_fd_sc_hd__nand2_1
*CAP
1 *585:C 0
2 *586:B1 0.000233032
3 *584:Y 0
4 *59:23 0.000310815
5 *59:4 0.000543847
6 *586:B1 *586:B2 4.04467e-05
7 *59:23 *583:B 1.50409e-05
8 *59:23 *120:10 1.13812e-05
9 *581:A2 *586:B1 7.74735e-05
10 *584:A *586:B1 5.58003e-05
11 *584:B *59:23 2.45554e-05
12 *585:B *59:23 0.000100761
13 *586:A1_N *586:B1 2.71329e-05
14 *586:A2_N *586:B1 0.000180818
15 *54:10 *59:23 4.92706e-05
16 *58:10 *59:23 0.000202994
*RES
1 *584:Y *59:4 23 
2 *59:4 *586:B1 27.93 
3 *59:4 *59:23 36.1936 
4 *59:23 *585:C 23 
*END

*D_NET *60 0.00675868
*CONN
*I *588:A1 I *D sky130_fd_sc_hd__a21bo_1
*I *609:B1 I *D sky130_fd_sc_hd__a211o_1
*I *608:B I *D sky130_fd_sc_hd__or3_4
*I *587:B1 I *D sky130_fd_sc_hd__a31o_1
*I *585:X O *D sky130_fd_sc_hd__or3_4
*CAP
1 *588:A1 0
2 *609:B1 8.61135e-05
3 *608:B 0.000183923
4 *587:B1 4.24639e-05
5 *585:X 0.000110307
6 *60:53 0.000421178
7 *60:43 0.000262053
8 *60:37 0.000493236
9 *60:18 0.000996032
10 *60:10 0.000681551
11 *587:B1 *116:6 6.17437e-06
12 *587:B1 *116:51 2.02872e-05
13 *608:B *608:A 0.00048295
14 *608:B *78:16 5.3304e-05
15 *608:B *180:8 0.000410106
16 *609:B1 *78:33 0.000147955
17 *609:B1 *114:63 8.57577e-05
18 *609:B1 *190:14 3.21898e-05
19 *60:10 *575:B 5.3304e-05
20 *60:10 *577:A2 5.5792e-05
21 *60:10 *119:8 3.64246e-05
22 *60:10 *122:23 8.29264e-05
23 *60:10 *194:14 0.000163479
24 *60:10 *198:51 0
25 *60:18 *579:B_N 0.000155651
26 *60:18 *116:10 0.000193983
27 *60:18 *116:14 8.85189e-05
28 *60:18 *123:52 0.000265477
29 *60:18 *192:10 0.000129989
30 *60:37 *62:8 0.000189903
31 *60:37 *62:27 6.5117e-06
32 *60:37 *116:10 5.19959e-05
33 *60:37 *116:51 0.000138593
34 *60:37 *123:14 0.000145632
35 *60:37 *158:8 5.30205e-05
36 *60:37 *179:8 9.66668e-05
37 *60:37 *192:10 2.46399e-05
38 *60:43 *588:A2 0.000123385
39 *60:43 *63:12 3.28357e-06
40 *60:53 *588:A2 5.3304e-05
41 *60:53 *729:A 1.0092e-05
42 *60:53 *78:16 2.02872e-05
43 *60:53 *78:33 3.43144e-05
44 *60:53 *190:14 6.59282e-05
*RES
1 *585:X *60:10 40.8793 
2 *60:10 *60:18 40.005 
3 *60:18 *587:B1 38.6214 
4 *60:18 *60:37 39.0521 
5 *60:37 *60:43 17.0714 
6 *60:43 *60:53 18.0657 