*SPEF "ieee 1481-1999"
*DESIGN "adder"
*DATE "09:53:04 Thursday April 17, 2025"
*VENDOR "The OpenROAD Project"
*PROGRAM "OpenROAD"
*VERSION "b16bda7e82721d10566ff7e2b68f1ff0be9f9e38"
*DESIGN_FLOW "NAME_SCOPE LOCAL" "PIN_CAP NONE"
*DIVIDER /
*DELIMITER :
*BUS_DELIMITER []
*T_UNIT 1 NS
*C_UNIT 1 PF
*R_UNIT 1 OHM
*L_UNIT 1 HENRY

*NAME_MAP
*3 a[0]
*4 a[10]
*5 a[11]
*6 a[12]
*7 a[13]
*8 a[14]
*9 a[15]
*10 a[1]
*11 a[2]
*12 a[3]
*13 a[4]
*14 a[5]
*15 a[6]
*16 a[7]
*17 a[8]
*18 a[9]
*19 b[0]
*20 b[10]
*21 b[11]
*22 b[12]
*23 b[13]
*24 b[14]
*25 b[15]
*26 b[1]
*27 b[2]
*28 b[3]
*29 b[4]
*30 b[5]
*31 b[6]
*32 b[7]
*33 b[8]
*34 b[9]
*35 cin
*36 clk
*37 sum[0]
*38 sum[10]
*39 sum[11]
*40 sum[12]
*41 sum[13]
*42 sum[14]
*43 sum[15]
*44 sum[16]
*45 sum[1]
*46 sum[2]
*47 sum[3]
*48 sum[4]
*49 sum[5]
*50 sum[6]
*51 sum[7]
*52 sum[8]
*53 sum[9]
*54 _000_
*55 _001_
*56 _002_
*57 _003_
*58 _004_
*59 _005_
*60 _006_
*61 _007_
*62 _008_
*63 _009_
*64 _010_
*65 _011_
*66 _012_
*67 _013_
*68 _014_
*69 _015_
*70 _016_
*71 _017_
*72 _018_
*73 _019_
*74 _020_
*75 _021_
*76 _022_
*77 _023_
*78 _024_
*79 _025_
*80 _026_
*81 _027_
*82 _028_
*83 _029_
*84 _030_
*85 _031_
*86 _032_
*87 _033_
*88 _034_
*89 _035_
*90 _036_
*91 _037_
*92 _038_
*93 _039_
*94 _040_
*95 _041_
*96 _042_
*97 _043_
*98 _044_
*99 _045_
*100 _046_
*101 _047_
*102 _048_
*103 _049_
*104 _050_
*105 _051_
*106 _052_
*107 _053_
*108 _054_
*109 _055_
*110 _056_
*111 _057_
*112 _058_
*113 _059_
*114 _060_
*115 _061_
*116 _062_
*117 _063_
*118 _064_
*119 _065_
*120 _066_
*121 _067_
*122 _068_
*123 _069_
*124 _070_
*125 _071_
*126 _072_
*127 _073_
*128 _074_
*129 a_q\[0\]
*130 a_q\[10\]
*131 a_q\[11\]
*132 a_q\[12\]
*133 a_q\[13\]
*134 a_q\[14\]
*135 a_q\[15\]
*136 a_q\[1\]
*137 a_q\[2\]
*138 a_q\[3\]
*139 a_q\[4\]
*140 a_q\[5\]
*141 a_q\[6\]
*142 a_q\[7\]
*143 a_q\[8\]
*144 a_q\[9\]
*145 b_q\[0\]
*146 b_q\[10\]
*147 b_q\[11\]
*148 b_q\[12\]
*149 b_q\[13\]
*150 b_q\[14\]
*151 b_q\[15\]
*152 b_q\[1\]
*153 b_q\[2\]
*154 b_q\[3\]
*155 b_q\[4\]
*156 b_q\[5\]
*157 b_q\[6\]
*158 b_q\[7\]
*159 b_q\[8\]
*160 b_q\[9\]
*161 cin_q
*162 clknet_0_clk
*163 clknet_2_0__leaf_clk
*164 clknet_2_1__leaf_clk
*165 clknet_2_2__leaf_clk
*166 clknet_2_3__leaf_clk
*167 net1
*168 net10
*169 net11
*170 net12
*171 net13
*172 net14
*173 net15
*174 net16
*175 net17
*176 net18
*177 net19
*178 net2
*179 net20
*180 net21
*181 net22
*182 net23
*183 net24
*184 net25
*185 net26
*186 net27
*187 net28
*188 net29
*189 net3
*190 net30
*191 net31
*192 net32
*193 net33
*194 net34
*195 net35
*196 net36
*197 net37
*198 net38
*199 net39
*200 net4
*201 net40
*202 net41
*203 net42
*204 net43
*205 net44
*206 net45
*207 net46
*208 net47
*209 net48
*210 net49
*211 net5
*212 net50
*213 net6
*214 net7
*215 net8
*216 net9
*217 sum_d\[0\]
*218 sum_d\[10\]
*219 sum_d\[11\]
*220 sum_d\[12\]
*221 sum_d\[13\]
*222 sum_d\[14\]
*223 sum_d\[15\]
*224 sum_d\[16\]
*225 sum_d\[1\]
*226 sum_d\[2\]
*227 sum_d\[3\]
*228 sum_d\[4\]
*229 sum_d\[5\]
*230 sum_d\[6\]
*231 sum_d\[7\]
*232 sum_d\[8\]
*233 sum_d\[9\]
*234 FILLER_0_0_102
*235 FILLER_0_0_111
*236 FILLER_0_0_113
*237 FILLER_0_0_120
*238 FILLER_0_0_32
*239 FILLER_0_0_55
*240 FILLER_0_0_60
*241 FILLER_0_0_88
*242 FILLER_0_0_93
*243 FILLER_0_10_121
*244 FILLER_0_10_129
*245 FILLER_0_10_19
*246 FILLER_0_10_27
*247 FILLER_0_10_45
*248 FILLER_0_10_6
*249 FILLER_0_10_72
*250 FILLER_0_10_85
*251 FILLER_0_11_111
*252 FILLER_0_11_113
*253 FILLER_0_11_125
*254 FILLER_0_11_131
*255 FILLER_0_11_18
*256 FILLER_0_11_29
*257 FILLER_0_11_41
*258 FILLER_0_11_53
*259 FILLER_0_11_57
*260 FILLER_0_11_6
*261 FILLER_0_11_65
*262 FILLER_0_11_87
*263 FILLER_0_12_101
*264 FILLER_0_12_108
*265 FILLER_0_12_120
*266 FILLER_0_12_27
*267 FILLER_0_12_29
*268 FILLER_0_12_46
*269 FILLER_0_12_63
*270 FILLER_0_12_69
*271 FILLER_0_12_76
*272 FILLER_0_12_85
*273 FILLER_0_12_92
*274 FILLER_0_13_102
*275 FILLER_0_13_110
*276 FILLER_0_13_113
*277 FILLER_0_13_117
*278 FILLER_0_13_122
*279 FILLER_0_13_130
*280 FILLER_0_13_15
*281 FILLER_0_13_19
*282 FILLER_0_13_26
*283 FILLER_0_13_34
*284 FILLER_0_13_52
*285 FILLER_0_13_57
*286 FILLER_0_13_63
*287 FILLER_0_13_88
*288 FILLER_0_13_9
*289 FILLER_0_14_101
*290 FILLER_0_14_108
*291 FILLER_0_14_131
*292 FILLER_0_14_19
*293 FILLER_0_14_27
*294 FILLER_0_14_29
*295 FILLER_0_14_37
*296 FILLER_0_14_56
*297 FILLER_0_14_85
*298 FILLER_0_14_97
*299 FILLER_0_15_113
*300 FILLER_0_15_125
*301 FILLER_0_15_131
*302 FILLER_0_15_15
*303 FILLER_0_15_3
*304 FILLER_0_15_53
*305 FILLER_0_15_57
*306 FILLER_0_15_69
*307 FILLER_0_15_80
*308 FILLER_0_15_92
*309 FILLER_0_15_98
*310 FILLER_0_16_10
*311 FILLER_0_16_130
*312 FILLER_0_16_27
*313 FILLER_0_16_29
*314 FILLER_0_16_41
*315 FILLER_0_16_53
*316 FILLER_0_16_6
*317 FILLER_0_16_65
*318 FILLER_0_16_77
*319 FILLER_0_16_83
*320 FILLER_0_16_85
*321 FILLER_0_16_89
*322 FILLER_0_17_111
*323 FILLER_0_17_119
*324 FILLER_0_17_22
*325 FILLER_0_17_34
*326 FILLER_0_17_54
*327 FILLER_0_17_57
*328 FILLER_0_17_69
*329 FILLER_0_17_81
*330 FILLER_0_17_93
*331 FILLER_0_18_103
*332 FILLER_0_18_131
*333 FILLER_0_18_19
*334 FILLER_0_18_27
*335 FILLER_0_18_29
*336 FILLER_0_18_41
*337 FILLER_0_18_47
*338 FILLER_0_18_80
*339 FILLER_0_19_107
*340 FILLER_0_19_23
*341 FILLER_0_19_35
*342 FILLER_0_19_39
*343 FILLER_0_19_57
*344 FILLER_0_19_6
*345 FILLER_0_19_65
*346 FILLER_0_19_84
*347 FILLER_0_1_106
*348 FILLER_0_1_12
*349 FILLER_0_1_129
*350 FILLER_0_1_34
*351 FILLER_0_1_57
*352 FILLER_0_20_101
*353 FILLER_0_20_113
*354 FILLER_0_20_131
*355 FILLER_0_20_29
*356 FILLER_0_20_51
*357 FILLER_0_20_71
*358 FILLER_0_20_83
*359 FILLER_0_21_102
*360 FILLER_0_21_111
*361 FILLER_0_21_113
*362 FILLER_0_21_120
*363 FILLER_0_21_32
*364 FILLER_0_21_39
*365 FILLER_0_21_48
*366 FILLER_0_21_60
*367 FILLER_0_21_66
*368 FILLER_0_21_75
*369 FILLER_0_21_85
*370 FILLER_0_21_89
*371 FILLER_0_21_93
*372 FILLER_0_2_105
*373 FILLER_0_2_122
*374 FILLER_0_2_130
*375 FILLER_0_2_19
*376 FILLER_0_2_27
*377 FILLER_0_2_45
*378 FILLER_0_2_49
*379 FILLER_0_2_66
*380 FILLER_0_2_78
*381 FILLER_0_2_85
*382 FILLER_0_2_97
*383 FILLER_0_3_105
*384 FILLER_0_3_111
*385 FILLER_0_3_113
*386 FILLER_0_3_125
*387 FILLER_0_3_131
*388 FILLER_0_3_19
*389 FILLER_0_3_38
*390 FILLER_0_3_50
*391 FILLER_0_3_57
*392 FILLER_0_3_69
*393 FILLER_0_3_81
*394 FILLER_0_3_93
*395 FILLER_0_4_109
*396 FILLER_0_4_121
*397 FILLER_0_4_129
*398 FILLER_0_4_21
*399 FILLER_0_4_27
*400 FILLER_0_4_29
*401 FILLER_0_4_38
*402 FILLER_0_4_50
*403 FILLER_0_4_70
*404 FILLER_0_4_75
*405 FILLER_0_4_83
*406 FILLER_0_4_85
*407 FILLER_0_4_9
*408 FILLER_0_4_97
*409 FILLER_0_5_101
*410 FILLER_0_5_109
*411 FILLER_0_5_113
*412 FILLER_0_5_125
*413 FILLER_0_5_131
*414 FILLER_0_5_19
*415 FILLER_0_5_23
*416 FILLER_0_5_45
*417 FILLER_0_5_57
*418 FILLER_0_5_61
*419 FILLER_0_6_120
*420 FILLER_0_6_15
*421 FILLER_0_6_24
*422 FILLER_0_6_29
*423 FILLER_0_6_3
*424 FILLER_0_6_75
*425 FILLER_0_6_83
*426 FILLER_0_6_85
*427 FILLER_0_6_97
*428 FILLER_0_7_113
*429 FILLER_0_7_131
*430 FILLER_0_7_17
*431 FILLER_0_7_57
*432 FILLER_0_7_69
*433 FILLER_0_7_81
*434 FILLER_0_7_9
*435 FILLER_0_7_93
*436 FILLER_0_8_110
*437 FILLER_0_8_114
*438 FILLER_0_8_131
*439 FILLER_0_8_19
*440 FILLER_0_8_27
*441 FILLER_0_8_32
*442 FILLER_0_8_37
*443 FILLER_0_8_49
*444 FILLER_0_8_53
*445 FILLER_0_8_72
*446 FILLER_0_8_85
*447 FILLER_0_8_97
*448 FILLER_0_9_101
*449 FILLER_0_9_111
*450 FILLER_0_9_113
*451 FILLER_0_9_125
*452 FILLER_0_9_131
*453 FILLER_0_9_3
*454 FILLER_0_9_30
*455 FILLER_0_9_42
*456 FILLER_0_9_48
*457 FILLER_0_9_57
*458 FILLER_0_9_80
*459 FILLER_0_9_9
*460 FILLER_0_9_92
*461 PHY_EDGE_ROW_0_Left_22
*462 PHY_EDGE_ROW_0_Right_0
*463 PHY_EDGE_ROW_10_Left_32
*464 PHY_EDGE_ROW_10_Right_10
*465 PHY_EDGE_ROW_11_Left_33
*466 PHY_EDGE_ROW_11_Right_11
*467 PHY_EDGE_ROW_12_Left_34
*468 PHY_EDGE_ROW_12_Right_12
*469 PHY_EDGE_ROW_13_Left_35
*470 PHY_EDGE_ROW_13_Right_13
*471 PHY_EDGE_ROW_14_Left_36
*472 PHY_EDGE_ROW_14_Right_14
*473 PHY_EDGE_ROW_15_Left_37
*474 PHY_EDGE_ROW_15_Right_15
*475 PHY_EDGE_ROW_16_Left_38
*476 PHY_EDGE_ROW_16_Right_16
*477 PHY_EDGE_ROW_17_Left_39
*478 PHY_EDGE_ROW_17_Right_17
*479 PHY_EDGE_ROW_18_Left_40
*480 PHY_EDGE_ROW_18_Right_18
*481 PHY_EDGE_ROW_19_Left_41
*482 PHY_EDGE_ROW_19_Right_19
*483 PHY_EDGE_ROW_1_Left_23
*484 PHY_EDGE_ROW_1_Right_1
*485 PHY_EDGE_ROW_20_Left_42
*486 PHY_EDGE_ROW_20_Right_20
*487 PHY_EDGE_ROW_21_Left_43
*488 PHY_EDGE_ROW_21_Right_21
*489 PHY_EDGE_ROW_2_Left_24
*490 PHY_EDGE_ROW_2_Right_2
*491 PHY_EDGE_ROW_3_Left_25
*492 PHY_EDGE_ROW_3_Right_3
*493 PHY_EDGE_ROW_4_Left_26
*494 PHY_EDGE_ROW_4_Right_4
*495 PHY_EDGE_ROW_5_Left_27
*496 PHY_EDGE_ROW_5_Right_5
*497 PHY_EDGE_ROW_6_Left_28
*498 PHY_EDGE_ROW_6_Right_6
*499 PHY_EDGE_ROW_7_Left_29
*500 PHY_EDGE_ROW_7_Right_7
*501 PHY_EDGE_ROW_8_Left_30
*502 PHY_EDGE_ROW_8_Right_8
*503 PHY_EDGE_ROW_9_Left_31
*504 PHY_EDGE_ROW_9_Right_9
*505 TAP_TAPCELL_ROW_0_44
*506 TAP_TAPCELL_ROW_0_45
*507 TAP_TAPCELL_ROW_0_46
*508 TAP_TAPCELL_ROW_0_47
*509 TAP_TAPCELL_ROW_10_66
*510 TAP_TAPCELL_ROW_10_67
*511 TAP_TAPCELL_ROW_11_68
*512 TAP_TAPCELL_ROW_11_69
*513 TAP_TAPCELL_ROW_12_70
*514 TAP_TAPCELL_ROW_12_71
*515 TAP_TAPCELL_ROW_13_72
*516 TAP_TAPCELL_ROW_13_73
*517 TAP_TAPCELL_ROW_14_74
*518 TAP_TAPCELL_ROW_14_75
*519 TAP_TAPCELL_ROW_15_76
*520 TAP_TAPCELL_ROW_15_77
*521 TAP_TAPCELL_ROW_16_78
*522 TAP_TAPCELL_ROW_16_79
*523 TAP_TAPCELL_ROW_17_80
*524 TAP_TAPCELL_ROW_17_81
*525 TAP_TAPCELL_ROW_18_82
*526 TAP_TAPCELL_ROW_18_83
*527 TAP_TAPCELL_ROW_19_84
*528 TAP_TAPCELL_ROW_19_85
*529 TAP_TAPCELL_ROW_1_48
*530 TAP_TAPCELL_ROW_1_49
*531 TAP_TAPCELL_ROW_20_86
*532 TAP_TAPCELL_ROW_20_87
*533 TAP_TAPCELL_ROW_21_88
*534 TAP_TAPCELL_ROW_21_89
*535 TAP_TAPCELL_ROW_21_90
*536 TAP_TAPCELL_ROW_21_91
*537 TAP_TAPCELL_ROW_2_50
*538 TAP_TAPCELL_ROW_2_51
*539 TAP_TAPCELL_ROW_3_52
*540 TAP_TAPCELL_ROW_3_53
*541 TAP_TAPCELL_ROW_4_54
*542 TAP_TAPCELL_ROW_4_55
*543 TAP_TAPCELL_ROW_5_56
*544 TAP_TAPCELL_ROW_5_57
*545 TAP_TAPCELL_ROW_6_58
*546 TAP_TAPCELL_ROW_6_59
*547 TAP_TAPCELL_ROW_7_60
*548 TAP_TAPCELL_ROW_7_61
*549 TAP_TAPCELL_ROW_8_62
*550 TAP_TAPCELL_ROW_8_63
*551 TAP_TAPCELL_ROW_9_64
*552 TAP_TAPCELL_ROW_9_65
*553 _075_
*554 _076_
*555 _077_
*556 _078_
*557 _079_
*558 _080_
*559 _081_
*560 _082_
*561 _083_
*562 _084_
*563 _085_
*564 _086_
*565 _087_
*566 _088_
*567 _089_
*568 _090_
*569 _091_
*570 _092_
*571 _093_
*572 _094_
*573 _095_
*574 _096_
*575 _097_
*576 _098_
*577 _099_
*578 _100_
*579 _101_
*580 _102_
*581 _103_
*582 _104_
*583 _105_
*584 _106_
*585 _107_
*586 _108_
*587 _109_
*588 _110_
*589 _111_
*590 _112_
*591 _113_
*592 _114_
*593 _115_
*594 _116_
*595 _117_
*596 _118_
*597 _119_
*598 _120_
*599 _121_
*600 _122_
*601 _123_
*602 _124_
*603 _125_
*604 _126_
*605 _127_
*606 _128_
*607 _129_
*608 _130_
*609 _131_
*610 _132_
*611 _133_
*612 _134_
*613 _135_
*614 _136_
*615 _137_
*616 _138_
*617 _139_
*618 _140_
*619 _141_
*620 _142_
*621 _143_
*622 _144_
*623 _145_
*624 _146_
*625 _147_
*626 _148_
*627 _149_
*628 _150_
*629 _151_
*630 _152_
*631 _153_
*632 _154_
*633 _155_
*634 _156_
*635 _157_
*636 _158_
*637 _159_
*638 _160_
*639 _161_
*640 _162_
*641 _163_
*642 _164_
*643 _165_
*644 _166_
*645 _167_
*646 _168_
*647 _169_
*648 _170_
*649 _171_
*650 _172_
*651 _173_
*652 _174_
*653 _175_
*654 _176_
*655 _177_
*656 _178_
*657 _179_
*658 _180_
*659 _181_
*660 _182_
*661 _183_
*662 _184_
*663 _185_
*664 _186_
*665 _187_
*666 _188_
*667 _189_
*668 _190_
*669 _191_
*670 _192_
*671 _193_
*672 _194_
*673 _195_
*674 _196_
*675 _197_
*676 _198_
*677 _199_
*678 _200_
*679 _201_
*680 _202_
*681 _203_
*682 _204_
*683 _205_
*684 _206_
*685 _207_
*686 _208_
*687 _209_
*688 _210_
*689 _211_
*690 _212_
*691 _213_
*692 _214_
*693 _215_
*694 _216_
*695 clkbuf_0_clk
*696 clkbuf_2_0__f_clk
*697 clkbuf_2_1__f_clk
*698 clkbuf_2_2__f_clk
*699 clkbuf_2_3__f_clk
*700 clkload0
*701 clkload1
*702 clkload2
*703 input1
*704 input10
*705 input11
*706 input12
*707 input13
*708 input14
*709 input15
*710 input16
*711 input17
*712 input18
*713 input19
*714 input2
*715 input20
*716 input21
*717 input22
*718 input23
*719 input24
*720 input25
*721 input26
*722 input27
*723 input28
*724 input29
*725 input3
*726 input30
*727 input31
*728 input32
*729 input33
*730 input4
*731 input5
*732 input6
*733 input7
*734 input8
*735 input9
*736 output34
*737 output35
*738 output36
*739 output37
*740 output38
*741 output39
*742 output40
*743 output41
*744 output42
*745 output43
*746 output44
*747 output45
*748 output46
*749 output47
*750 output48
*751 output49
*752 output50

*PORTS
a[0] I
a[10] I
a[11] I
a[12] I
a[13] I
a[14] I
a[15] I
a[1] I
a[2] I
a[3] I
a[4] I
a[5] I
a[6] I
a[7] I
a[8] I
a[9] I
b[0] I
b[10] I
b[11] I
b[12] I
b[13] I
b[14] I
b[15] I
b[1] I
b[2] I
b[3] I
b[4] I
b[5] I
b[6] I
b[7] I
b[8] I
b[9] I
cin I
clk I
sum[0] O
sum[10] O
sum[11] O
sum[12] O
sum[13] O
sum[14] O
sum[15] O
sum[16] O
sum[1] O
sum[2] O
sum[3] O
sum[4] O
sum[5] O
sum[6] O
sum[7] O
sum[8] O
sum[9] O

*D_NET *3 0.00114878
*CONN
*P a[0] I
*I *703:A I *D sky130_fd_sc_hd__clkbuf_1
*CAP
1 a[0] 0.000574388
2 *703:A 0.000574388
3 *703:A *650:D 0
4 *703:A *734:A 0
*RES
1 a[0] *703:A 13.425 
*END

*D_NET *4 0.00120699
*CONN
*P a[10] I
*I *714:A I *D sky130_fd_sc_hd__clkbuf_1
*CAP
1 a[10] 0.000586993
2 *714:A 0.000586993
3 *714:A *660:D 3.30017e-05
4 *714:A *710:A 0
5 *714:A *725:A 0
*RES
1 a[10] *714:A 13.875 
*END

*D_NET *5 0.00100855
*CONN
*P a[11] I
*I *725:A I *D sky130_fd_sc_hd__clkbuf_1
*CAP
1 a[11] 0.000504275
2 *725:A 0.000504275
3 *725:A *730:A 0
4 *714:A *725:A 0
*RES
1 a[11] *725:A 12.39 
*END

*D_NET *6 0.00100605
*CONN
*P a[12] I
*I *730:A I *D sky130_fd_sc_hd__clkbuf_1
*CAP
1 a[12] 0.000503026
2 *730:A 0.000503026
3 *730:A *662:D 0
4 *730:A *731:A 0
5 *725:A *730:A 0
*RES
1 a[12] *730:A 12.39 
*END

*D_NET *7 0.0011185
*CONN
*P a[13] I
*I *731:A I *D sky130_fd_sc_hd__clkbuf_1
*CAP
1 a[13] 0.000549897
2 *731:A 0.000549897
3 *731:A *662:D 0
4 *731:A *663:D 1.87038e-05
5 *730:A *731:A 0
*RES
1 a[13] *731:A 13.08 
*END

*D_NET *8 0.00111938
*CONN
*P a[14] I
*I *732:A I *D sky130_fd_sc_hd__clkbuf_1
*CAP
1 a[14] 0.000396824
2 *732:A 0.000396824
3 *732:A *665:D 0
4 *732:A *733:A 0.000325733
*RES
1 a[14] *732:A 13.08 
*END

*D_NET *9 0.00111481
*CONN
*P a[15] I
*I *733:A I *D sky130_fd_sc_hd__clkbuf_1
*CAP
1 a[15] 0.000394537
2 *733:A 0.000394537
3 *732:A *733:A 0.000325733
*RES
1 a[15] *733:A 13.08 
*END

*D_NET *10 0.00154802
*CONN
*P a[1] I
*I *734:A I *D sky130_fd_sc_hd__clkbuf_1
*CAP
1 a[1] 0.000624127
2 *734:A 0.000624127
3 *734:A sum[15] 1.17616e-05
4 *734:A *650:D 0
5 *734:A *651:CLK 9.26188e-05
6 *734:A *651:D 0.000142074
7 *734:A *735:A 0
8 *734:A *741:A 4.28112e-06
9 *734:A *742:A 4.90291e-05
10 *703:A *734:A 0
*RES
1 a[1] *734:A 15.585 
*END

*D_NET *11 0.00139337
*CONN
*P a[2] I
*I *735:A I *D sky130_fd_sc_hd__clkbuf_1
*CAP
1 a[2] 0.000597765
2 *735:A 0.000597765
3 *735:A sum[16] 7.33706e-05
4 *735:A *704:A 0
5 *735:A *136:16 0.000124471
6 *734:A *735:A 0
*RES
1 a[2] *735:A 14.46 
*END

*D_NET *12 0.00124925
*CONN
*P a[3] I
*I *704:A I *D sky130_fd_sc_hd__clkbuf_1
*CAP
1 a[3] 0.000621711
2 *704:A 0.000621711
3 *704:A sum[16] 0
4 *704:A *705:A 0
5 *704:A *136:16 5.83121e-06
6 *735:A *704:A 0
*RES
1 a[3] *704:A 13.875 
*END

*D_NET *13 0.00100738
*CONN
*P a[4] I
*I *705:A I *D sky130_fd_sc_hd__clkbuf_1
*CAP
1 a[4] 0.000503691
2 *705:A 0.000503691
3 *705:A *706:A 0
4 *705:A *743:A 0
5 *704:A *705:A 0
*RES
1 a[4] *705:A 12.39 
*END

*D_NET *14 0.00110313
*CONN
*P a[5] I
*I *706:A I *D sky130_fd_sc_hd__clkbuf_1
*CAP
1 a[5] 0.000551563
2 *706:A 0.000551563
3 *706:A *707:A 0
4 *705:A *706:A 0
*RES
1 a[5] *706:A 13.08 
*END

*D_NET *15 0.00127179
*CONN
*P a[6] I
*I *707:A I *D sky130_fd_sc_hd__clkbuf_1
*CAP
1 a[6] 0.000597177
2 *707:A 0.000597177
3 *707:A *656:D 7.74377e-05
4 *707:A *708:A 0
5 *706:A *707:A 0
*RES
1 a[6] *707:A 14.115 
*END

*D_NET *16 0.00110762
*CONN
*P a[7] I
*I *708:A I *D sky130_fd_sc_hd__clkbuf_1
*CAP
1 a[7] 0.000553811
2 *708:A 0.000553811
3 *708:A *656:D 0
4 *708:A *709:A 0
5 *707:A *708:A 0
*RES
1 a[7] *708:A 13.08 
*END

*D_NET *17 0.00110313
*CONN
*P a[8] I
*I *709:A I *D sky130_fd_sc_hd__clkbuf_1
*CAP
1 a[8] 0.000551563
2 *709:A 0.000551563
3 *709:A *710:A 0
4 *708:A *709:A 0
*RES
1 a[8] *709:A 13.08 
*END

*D_NET *18 0.00111542
*CONN
*P a[9] I
*I *710:A I *D sky130_fd_sc_hd__clkbuf_1
*CAP
1 a[9] 0.000548516
2 *710:A 0.000548516
3 *710:A *659:D 1.83847e-05
4 *709:A *710:A 0
5 *714:A *710:A 0
*RES
1 a[9] *710:A 13.08 
*END

*D_NET *19 0.000915907
*CONN
*P b[0] I
*I *711:A I *D sky130_fd_sc_hd__clkbuf_1
*CAP
1 b[0] 0.000457954
2 *711:A 0.000457954
3 *711:A *719:A 0
*RES
1 b[0] *711:A 11.385 
*END

*D_NET *20 0.00093665
*CONN
*P b[10] I
*I *712:A I *D sky130_fd_sc_hd__clkbuf_1
*CAP
1 b[10] 0.000444437
2 *712:A 0.000444437
3 *712:A *674:CLK 4.77757e-05
4 *712:A *713:A 0
5 *712:A *728:A 0
*RES
1 b[10] *712:A 11.25 
*END

*D_NET *21 0.000880284
*CONN
*P b[11] I
*I *713:A I *D sky130_fd_sc_hd__clkbuf_1
*CAP
1 b[11] 0.000440142
2 *713:A 0.000440142
3 *713:A *715:A 0
4 *712:A *713:A 0
*RES
1 b[11] *713:A 11.04 
*END

*D_NET *22 0.000786235
*CONN
*P b[12] I
*I *715:A I *D sky130_fd_sc_hd__clkbuf_1
*CAP
1 b[12] 0.000393118
2 *715:A 0.000393118
3 *715:A *716:A 0
4 *713:A *715:A 0
*RES
1 b[12] *715:A 10.35 
*END

*D_NET *23 0.000884146
*CONN
*P b[13] I
*I *716:A I *D sky130_fd_sc_hd__clkbuf_1
*CAP
1 b[13] 0.00043319
2 *716:A 0.00043319
3 *716:A *679:D 1.77665e-05
4 *716:A *717:A 0
5 *715:A *716:A 0
*RES
1 b[13] *716:A 11.04 
*END

*D_NET *24 0.000902546
*CONN
*P b[14] I
*I *717:A I *D sky130_fd_sc_hd__clkbuf_1
*CAP
1 b[14] 0.000449448
2 *717:A 0.000449448
3 *717:A *680:D 3.64998e-06
4 *717:A *718:A 0
5 *716:A *717:A 0
*RES
1 b[14] *717:A 11.25 
*END

*D_NET *25 0.000891019
*CONN
*P b[15] I
*I *718:A I *D sky130_fd_sc_hd__clkbuf_1
*CAP
1 b[15] 0.000445509
2 *718:A 0.000445509
3 *717:A *718:A 0
*RES
1 b[15] *718:A 11.04 
*END

*D_NET *26 0.000847614
*CONN
*P b[1] I
*I *719:A I *D sky130_fd_sc_hd__clkbuf_1
*CAP
1 b[1] 0.000301396
2 *719:A 0.000301396
3 *719:A sum[0] 0.000244822
4 *719:A *720:A 0
5 *711:A *719:A 0
*RES
1 b[1] *719:A 9.9 
*END

*D_NET *27 0.00120701
*CONN
*P b[2] I
*I *720:A I *D sky130_fd_sc_hd__clkbuf_1
*CAP
1 b[2] 0.000528042
2 *720:A 0.000528042
3 *720:A sum[0] 0
4 *720:A *668:D 0.000150926
5 *720:A *721:A 0
6 *719:A *720:A 0
*RES
1 b[2] *720:A 12.87 
*END

*D_NET *28 0.000973729
*CONN
*P b[3] I
*I *721:A I *D sky130_fd_sc_hd__clkbuf_1
*CAP
1 b[3] 0.00047631
2 *721:A 0.00047631
3 *721:A *722:A 0
4 *721:A *153:10 2.11084e-05
5 *720:A *721:A 0
*RES
1 b[3] *721:A 11.73 
*END

*D_NET *29 0.000871819
*CONN
*P b[4] I
*I *722:A I *D sky130_fd_sc_hd__clkbuf_1
*CAP
1 b[4] 0.000430472
2 *722:A 0.000430472
3 *722:A *670:D 1.08758e-05
4 *722:A *723:A 0
5 *721:A *722:A 0
*RES
1 b[4] *722:A 10.695 
*END

*D_NET *30 0.00124091
*CONN
*P b[5] I
*I *723:A I *D sky130_fd_sc_hd__clkbuf_1
*CAP
1 b[5] 0.00047943
2 *723:A 0.00047943
3 *723:A *670:D 0.000228576
4 *723:A *671:D 5.34747e-05
5 *723:A *724:A 0
6 *722:A *723:A 0
*RES
1 b[5] *723:A 12.87 
*END

*D_NET *31 0.00104675
*CONN
*P b[6] I
*I *724:A I *D sky130_fd_sc_hd__clkbuf_1
*CAP
1 b[6] 0.000496321
2 *724:A 0.000496321
3 *724:A *672:D 3.57254e-05
4 *724:A *726:A 0
5 *724:A *155:10 1.83847e-05
6 *723:A *724:A 0
*RES
1 b[6] *724:A 12.075 
*END

*D_NET *32 0.000834944
*CONN
*P b[7] I
*I *726:A I *D sky130_fd_sc_hd__clkbuf_1
*CAP
1 b[7] 0.000415647
2 *726:A 0.000415647
3 *726:A *673:D 3.64998e-06
4 *726:A *727:A 0
5 *724:A *726:A 0
*RES
1 b[7] *726:A 10.695 
*END

*D_NET *33 0.00106331
*CONN
*P b[8] I
*I *727:A I *D sky130_fd_sc_hd__clkbuf_1
*CAP
1 b[8] 0.000526216
2 *727:A 0.000526216
3 *727:A *674:D 1.08758e-05
4 *727:A *728:A 0
5 *726:A *727:A 0
*RES
1 b[8] *727:A 13.515 
*END

*D_NET *34 0.00111229
*CONN
*P b[9] I
*I *728:A I *D sky130_fd_sc_hd__clkbuf_1
*CAP
1 b[9] 0.000460021
2 *728:A 0.000460021
3 *728:A *674:CLK 0.000192246
4 *712:A *728:A 0
5 *727:A *728:A 0
*RES
1 b[9] *728:A 11.835 
*END

*D_NET *35 0.00104518
*CONN
*P cin I
*I *729:A I *D sky130_fd_sc_hd__clkbuf_1
*CAP
1 cin 0.000323232
2 *729:A 0.000323232
3 *729:A *133:14 0.000106748
4 *729:A *150:12 8.53113e-06
5 *729:A *151:14 0.000283433
*RES
1 cin *729:A 7.8485 
*END

*D_NET *36 0.00682034
*CONN
*P clk I
*I *695:A I *D sky130_fd_sc_hd__clkbuf_16
*CAP
1 clk 0.00336382
2 *695:A 0.00336382
3 *695:A *57:10 0
4 *695:A *159:14 0
5 *695:A *162:18 9.26933e-05
*RES
1 clk *695:A 12.0526 
*END

*D_NET *37 0.00132712
*CONN
*P sum[0] O
*I *736:X O *D sky130_fd_sc_hd__buf_1
*CAP
1 sum[0] 0.000503241
2 *736:X 0.000503241
3 sum[0] sum[1] 0
4 sum[0] *667:D 2.66935e-05
5 sum[0] *668:CLK 4.91189e-05
6 *719:A sum[0] 0.000244822
7 *720:A sum[0] 0
*RES
1 *736:X sum[0] 9.27637 
*END

*D_NET *38 0.000910459
*CONN
*P sum[10] O
*I *737:X O *D sky130_fd_sc_hd__buf_1
*CAP
1 sum[10] 0.000352429
2 *737:X 0.000352429
3 sum[10] sum[11] 0
4 sum[10] sum[9] 5.89207e-05
5 sum[10] *666:CLK 0.000146681
*RES
1 *737:X sum[10] 6.88503 
*END

*D_NET *39 0.000667561
*CONN
*P sum[11] O
*I *738:X O *D sky130_fd_sc_hd__buf_1
*CAP
1 sum[11] 0.000276607
2 *738:X 0.000276607
3 sum[11] sum[12] 1.11399e-05
4 sum[11] *164:46 0.000103207
5 sum[10] sum[11] 0
*RES
1 *738:X sum[11] 6.2585 
*END

*D_NET *40 0.000665308
*CONN
*P sum[12] O
*I *739:X O *D sky130_fd_sc_hd__buf_1
*CAP
1 sum[12] 0.000327084
2 *739:X 0.000327084
3 sum[12] sum[13] 0
4 sum[11] sum[12] 1.11399e-05
*RES
1 *739:X sum[12] 7.3443 
*END

*D_NET *41 0.000652469
*CONN
*P sum[13] O
*I *740:X O *D sky130_fd_sc_hd__buf_1
*CAP
1 sum[13] 0.000273721
2 *740:X 0.000273721
3 sum[13] sum[14] 0
4 sum[13] *164:59 0.000105027
5 sum[12] sum[13] 0
*RES
1 *740:X sum[13] 6.2585 
*END

*D_NET *42 0.00062169
*CONN
*P sum[14] O
*I *741:X O *D sky130_fd_sc_hd__buf_1
*CAP
1 sum[14] 0.000306507
2 *741:X 0.000306507
3 sum[14] sum[15] 8.67624e-06
4 sum[13] sum[14] 0
*RES
1 *741:X sum[14] 7.0893 
*END

*D_NET *43 0.000992521
*CONN
*P sum[15] O
*I *742:X O *D sky130_fd_sc_hd__buf_1
*CAP
1 sum[15] 0.000342585
2 *742:X 0.000342585
3 sum[15] sum[16] 0
4 sum[15] *650:D 0.000151305
5 sum[15] *651:CLK 0.000117698
6 sum[15] *741:A 1.79098e-05
7 sum[14] sum[15] 8.67624e-06
8 *734:A sum[15] 1.17616e-05
*RES
1 *742:X sum[15] 6.9433 
*END

*D_NET *44 0.00187306
*CONN
*P sum[16] O
*I *743:X O *D sky130_fd_sc_hd__buf_1
*CAP
1 sum[16] 0.000892227
2 *743:X 0.000892227
3 sum[16] *136:16 1.52352e-05
4 sum[15] sum[16] 0
5 *704:A sum[16] 0
6 *735:A sum[16] 7.33706e-05
*RES
1 *743:X sum[16] 9.93057 
*END

*D_NET *45 0.000849008
*CONN
*P sum[1] O
*I *744:X O *D sky130_fd_sc_hd__buf_1
*CAP
1 sum[1] 0.00037409
2 *744:X 0.00037409
3 sum[1] sum[2] 9.60582e-07
4 sum[1] *666:D 7.23533e-05
5 sum[1] *745:A 2.75145e-05
6 sum[0] sum[1] 0
*RES
1 *744:X sum[1] 7.00677 
*END

*D_NET *46 0.000541726
*CONN
*P sum[2] O
*I *745:X O *D sky130_fd_sc_hd__buf_1
*CAP
1 sum[2] 0.000255692
2 *745:X 0.000255692
3 sum[2] sum[3] 0
4 sum[2] *666:D 2.93818e-05
5 sum[1] sum[2] 9.60582e-07
*RES
1 *745:X sum[2] 5.7485 
*END

*D_NET *47 0.000841064
*CONN
*P sum[3] O
*I *746:X O *D sky130_fd_sc_hd__buf_1
*CAP
1 sum[3] 0.000402001
2 *746:X 0.000402001
3 sum[3] sum[4] 1.68881e-05
4 sum[3] *666:D 0
5 sum[3] *747:A 2.01737e-05
6 sum[2] sum[3] 0
*RES
1 *746:X sum[3] 8.3793 
*END

*D_NET *48 0.000552158
*CONN
*P sum[4] O
*I *747:X O *D sky130_fd_sc_hd__buf_1
*CAP
1 sum[4] 0.000252944
2 *747:X 0.000252944
3 sum[4] sum[5] 0
4 sum[4] *666:D 2.93818e-05
5 sum[3] sum[4] 1.68881e-05
*RES
1 *747:X sum[4] 5.7485 
*END

*D_NET *49 0.000851272
*CONN
*P sum[5] O
*I *748:X O *D sky130_fd_sc_hd__buf_1
*CAP
1 sum[5] 0.000417997
2 *748:X 0.000417997
3 sum[5] sum[6] 1.52788e-05
4 sum[5] *666:D 0
5 sum[4] sum[5] 0
*RES
1 *748:X sum[5] 8.3793 
*END

*D_NET *50 0.00057444
*CONN
*P sum[6] O
*I *749:X O *D sky130_fd_sc_hd__buf_1
*CAP
1 sum[6] 0.000265216
2 *749:X 0.000265216
3 sum[6] sum[7] 0
4 sum[6] *666:D 2.87301e-05
5 sum[5] sum[6] 1.52788e-05
*RES
1 *749:X sum[6] 5.7485 
*END

*D_NET *51 0.000638514
*CONN
*P sum[7] O
*I *750:X O *D sky130_fd_sc_hd__buf_1
*CAP
1 sum[7] 0.000313687
2 *750:X 0.000313687
3 sum[7] sum[8] 1.11399e-05
4 sum[7] *666:D 0
5 sum[6] sum[7] 0
*RES
1 *750:X sum[7] 7.3443 
*END

*D_NET *52 0.000469437
*CONN
*P sum[8] O
*I *751:X O *D sky130_fd_sc_hd__buf_1
*CAP
1 sum[8] 0.000208454
2 *751:X 0.000208454
3 sum[8] sum[9] 0
4 sum[8] *666:D 4.13879e-05
5 sum[7] sum[8] 1.11399e-05
*RES
1 *751:X sum[8] 5.10177 
*END

*D_NET *53 0.000892191
*CONN
*P sum[9] O
*I *752:X O *D sky130_fd_sc_hd__buf_1
*CAP
1 sum[9] 0.000392166
2 *752:X 0.000392166
3 sum[9] *666:CLK 0
4 sum[9] *737:A 4.89395e-05
5 sum[10] sum[9] 5.89207e-05
6 sum[8] sum[9] 0
*RES
1 *752:X sum[9] 8.3793 
*END

*D_NET *54 0.001706
*CONN
*I *603:B I *D sky130_fd_sc_hd__xor2_1
*I *605:A2 I *D sky130_fd_sc_hd__o21a_1
*I *608:A I *D sky130_fd_sc_hd__or2b_1
*I *602:Y O *D sky130_fd_sc_hd__nand2_1
*CAP
1 *603:B 0
2 *605:A2 5.32803e-05
3 *608:A 0.000195716
4 *602:Y 0.000211663
5 *54:25 8.19771e-05
6 *54:12 0.000436076
7 *605:A2 *160:10 9.12494e-06
8 *605:A2 *160:31 0.000103464
9 *605:A2 *162:60 6.21647e-05
10 *608:A *603:A 1.19928e-05
11 *608:A *608:B_N 6.07575e-06
12 *608:A *623:A1 6.92161e-05
13 *54:12 *605:B1 6.8986e-05
14 *54:12 *606:A 4.02502e-05
15 *54:12 *606:B 4.66108e-05
16 *54:12 *608:B_N 3.45492e-05
17 *54:12 *693:D 7.5173e-05
18 *54:12 *141:10 0.000156159
19 *54:12 *162:60 8.34281e-06
20 *54:25 *608:B_N 3.16062e-05
21 *54:25 *623:A1 3.5678e-06
*RES
1 *602:Y *54:12 10.01 
2 *54:12 *608:A 4.135 
3 *54:12 *54:25 0.81 
4 *54:25 *605:A2 6.98 
5 *54:25 *603:B 1.6 
*END

*D_NET *55 0.00123315
*CONN
*I *608:B_N I *D sky130_fd_sc_hd__or2b_1
*I *606:A I *D sky130_fd_sc_hd__xnor2_1
*I *604:X O *D sky130_fd_sc_hd__xor2_1
*CAP
1 *608:B_N 0.000163584
2 *606:A 3.33891e-05
3 *604:X 0.000112091
4 *55:12 0.000309065
5 *606:A *606:B 4.66108e-05
6 *606:A *162:60 0.000119873
7 *608:B_N *603:A 4.66108e-05
8 *608:B_N *623:A1 5.19557e-05
9 *608:B_N *162:60 4.66108e-05
10 *55:12 *600:A 4.77769e-05
11 *55:12 *600:B 1.79098e-05
12 *55:12 *142:14 9.66322e-05
13 *55:12 *162:60 2.85623e-05
14 *608:A *608:B_N 6.07575e-06
15 *54:12 *606:A 4.02502e-05
16 *54:12 *608:B_N 3.45492e-05
17 *54:25 *608:B_N 3.16062e-05
*RES
1 *604:X *55:12 8.195 
2 *55:12 *606:A 2.74 
3 *55:12 *608:B_N 4.945 
*END

*D_NET *56 0.000403658
*CONN
*I *606:B I *D sky130_fd_sc_hd__xnor2_1
*I *605:X O *D sky130_fd_sc_hd__o21a_1
*CAP
1 *606:B 5.23655e-05
2 *605:X 5.23655e-05
3 *606:B *691:D 7.1624e-05
4 *606:B *142:14 0.000112589
5 *606:B *162:60 2.14921e-05
6 *606:A *606:B 4.66108e-05
7 *54:12 *606:B 4.66108e-05
*RES
1 *605:X *606:B 9.03 
*END

*D_NET *57 0.00164897
*CONN
*I *618:A I *D sky130_fd_sc_hd__nand2_1
*I *612:A I *D sky130_fd_sc_hd__xnor2_1
*I *607:X O *D sky130_fd_sc_hd__xor2_1
*CAP
1 *618:A 0.0003187
2 *612:A 0
3 *607:X 0.000153967
4 *57:10 0.000472667
5 *618:A *620:A 0.000157394
6 *618:A *694:D 6.74916e-06
7 *618:A *61:10 0.000165123
8 *618:A *66:8 0.000111391
9 *57:10 *616:A2 0.000117698
10 *57:10 *61:10 2.30797e-05
11 *57:10 *130:54 0.000122202
12 *695:A *57:10 0
*RES
1 *607:X *57:10 6.375 
2 *57:10 *612:A 3.6 
3 *57:10 *618:A 9.495 
*END

*D_NET *58 0.00117596
*CONN
*I *623:A2 I *D sky130_fd_sc_hd__o31ai_2
*I *611:A2 I *D sky130_fd_sc_hd__o21a_1
*I *608:X O *D sky130_fd_sc_hd__or2b_1
*CAP
1 *623:A2 0.00017659
2 *611:A2 0.000105632
3 *608:X 4.62095e-05
4 *58:6 0.000328432
5 *611:A2 *60:12 6.88421e-05
6 *623:A2 *623:A1 9.28568e-05
7 *623:A2 *60:12 3.57349e-05
8 *58:6 *610:A2 8.58181e-05
9 *58:6 *623:A1 0.000150595
10 *58:6 *60:12 8.52515e-05
*RES
1 *608:X *58:6 3.43 
2 *58:6 *611:A2 7.175 
3 *58:6 *623:A2 4.735 
*END

*D_NET *59 0.000505276
*CONN
*I *610:B1 I *D sky130_fd_sc_hd__o21ai_1
*I *609:X O *D sky130_fd_sc_hd__a22o_1
*CAP
1 *610:B1 0.000243733
2 *609:X 0.000243733
3 *610:B1 *694:D 1.7809e-05
*RES
1 *609:X *610:B1 10.32 
*END

*D_NET *60 0.00110815
*CONN
*I *620:A I *D sky130_fd_sc_hd__nor2_1
*I *611:B1 I *D sky130_fd_sc_hd__o21a_1
*I *610:Y O *D sky130_fd_sc_hd__o21ai_1
*CAP
1 *620:A 0.000168632
2 *611:B1 0
3 *610:Y 0.000180012
4 *60:12 0.000348644
5 *620:A *61:10 6.36369e-05
6 *611:A2 *60:12 6.88421e-05
7 *618:A *620:A 0.000157394
8 *623:A2 *60:12 3.57349e-05
9 *58:6 *60:12 8.52515e-05
*RES
1 *610:Y *60:12 8.375 
2 *60:12 *611:B1 1.6 
3 *60:12 *620:A 4.81 
*END

*D_NET *61 0.00143244
*CONN
*I *612:B I *D sky130_fd_sc_hd__xnor2_1
*I *616:A2 I *D sky130_fd_sc_hd__o21a_1
*I *611:X O *D sky130_fd_sc_hd__o21a_1
*CAP
1 *612:B 0
2 *616:A2 0.00021075
3 *611:X 0.000160979
4 *61:10 0.000371729
5 *616:A2 *616:A1 2.69153e-05
6 *616:A2 *661:CLK 0.000132827
7 *616:A2 *130:14 4.97523e-05
8 *616:A2 *130:20 1.64056e-05
9 *616:A2 *130:54 2.43962e-05
10 *61:10 *694:D 3.86529e-05
11 *61:10 *130:14 3.04982e-05
12 *618:A *61:10 0.000165123
13 *620:A *61:10 6.36369e-05
14 *57:10 *616:A2 0.000117698
15 *57:10 *61:10 2.30797e-05
*RES
1 *611:X *61:10 6.72 
2 *61:10 *616:A2 8.085 
3 *61:10 *612:B 3.6 
*END

*D_NET *62 0.00155456
*CONN
*I *618:B I *D sky130_fd_sc_hd__nand2_1
*I *617:A I *D sky130_fd_sc_hd__xnor2_1
*I *613:X O *D sky130_fd_sc_hd__xor2_1
*CAP
1 *618:B 0.000299177
2 *617:A 0.000284553
3 *613:X 9.34686e-05
4 *62:8 0.000677199
5 *617:A *621:C1 0.000200165
6 *618:B *621:B1 0
7 *618:B *622:A 0
8 *618:B *148:12 0
9 *62:8 *621:B1 0
10 *62:8 *148:12 0
*RES
1 *613:X *62:8 4.98 
2 *62:8 *617:A 8.55 
3 *62:8 *618:B 8.265 
*END

*D_NET *63 0.00105384
*CONN
*I *616:A1 I *D sky130_fd_sc_hd__o21a_1
*I *614:Y O *D sky130_fd_sc_hd__nor2_1
*CAP
1 *616:A1 0.000370098
2 *614:Y 0.000370098
3 *616:A1 *619:B1 0.000105675
4 *616:A1 *619:C1 4.77769e-05
5 *616:A1 *701:A 4.28112e-06
6 *616:A1 *146:27 5.92786e-05
7 *616:A1 *147:10 6.97199e-05
8 *616:A2 *616:A1 2.69153e-05
*RES
1 *614:Y *616:A1 13.935 
*END

*D_NET *64 0.000940092
*CONN
*I *616:B1 I *D sky130_fd_sc_hd__o21a_1
*I *615:Y O *D sky130_fd_sc_hd__nand2_1
*CAP
1 *616:B1 0.000263423
2 *615:Y 0.000263423
3 *616:B1 *614:A 3.12855e-05
4 *616:B1 *615:A 7.07183e-05
5 *616:B1 *615:B 1.06809e-05
6 *616:B1 *661:CLK 6.04287e-05
7 *616:B1 *130:20 8.33575e-05
8 *616:B1 *146:44 0.000156774
*RES
1 *615:Y *616:B1 11.445 
*END

*D_NET *65 0.000615803
*CONN
*I *617:B I *D sky130_fd_sc_hd__xnor2_1