* NGSPICE file created from rca8b.ext - technology: sky130A

.subckt rca8b cout a5 b5 a6 b6 a7 b7 a8 b8 DVDD DGND a1 b1 cin a2 b2 a3 b3 a4 b4 s1
+ s2 s3 s4 s5 s6 s7 s8
X0 DGND b1 a_252_n200# DGND sky130_fd_pr__nfet_01v8 ad=0.126 pd=1.44 as=0.105 ps=0.92 w=0.42 l=0.15
X1 DVDD a2 a_n398_n1626# DVDD sky130_fd_pr__pfet_01v8 ad=0.105 pd=0.92 as=0.105 ps=0.92 w=0.42 l=0.15
X2 a_1828_n2990# a_1049_n3577# DVDD DVDD sky130_fd_pr__pfet_01v8 ad=0.21 pd=1.34 as=0.21 ps=1.34 w=0.84 l=0.15
X3 a_n138_n2990# b4 DVDD DVDD sky130_fd_pr__pfet_01v8 ad=0.21 pd=1.34 as=0.21 ps=1.34 w=0.84 l=0.15
X4 a_n398_n538# a_n462_n423# DVDD DVDD sky130_fd_pr__pfet_01v8 ad=0.105 pd=0.92 as=0.126 ps=1.44 w=0.42 l=0.15
X5 DVDD a_773_n2489# a_1828_n1902# DVDD sky130_fd_pr__pfet_01v8 ad=0.21 pd=1.34 as=0.21 ps=1.34 w=0.84 l=0.15
X6 a_2868_n1288# a_1685_n1626# a_2998_n1288# DGND sky130_fd_pr__nfet_01v8 ad=0.105 pd=0.92 as=0.105 ps=0.92 w=0.42 l=0.15
X7 a_1698_n1902# a_1698_n2990# a_1828_n1902# DVDD sky130_fd_pr__pfet_01v8 ad=0.21 pd=1.34 as=0.21 ps=1.34 w=0.84 l=0.15
X8 a_1568_274# a_773_n313# cout w_n755_206# sky130_fd_pr__pfet_01v8 ad=0.21 pd=1.34 as=0.21 ps=1.34 w=0.84 l=0.15
X9 DVDD a_1049_n1401# a_1568_n814# DVDD sky130_fd_pr__pfet_01v8 ad=0.252 pd=2.28 as=0.21 ps=1.34 w=0.84 l=0.15
X10 a_2868_n538# a_1698_n814# s8 DVDD sky130_fd_pr__pfet_01v8 ad=0.105 pd=0.92 as=0.105 ps=0.92 w=0.42 l=0.15
X11 DVDD a_1049_n1401# a_1828_n814# DVDD sky130_fd_pr__pfet_01v8 ad=0.21 pd=1.34 as=0.21 ps=1.34 w=0.84 l=0.15
X12 a_2868_n2714# a_1685_n2714# DVDD DVDD sky130_fd_pr__pfet_01v8 ad=0.105 pd=0.92 as=0.105 ps=0.92 w=0.42 l=0.15
X13 a_1685_n538# a_1049_n313# DGND DGND sky130_fd_pr__nfet_01v8 ad=0.126 pd=1.44 as=0.126 ps=1.44 w=0.42 l=0.15
X14 a_1698_n814# a_773_n1401# a_1568_n814# DVDD sky130_fd_pr__pfet_01v8 ad=0.21 pd=1.34 as=0.21 ps=1.34 w=0.84 l=0.15
X15 a_n138_n1101# a2 DGND DGND sky130_fd_pr__nfet_01v8 ad=0.252 pd=2.28 as=0.21 ps=1.34 w=0.84 l=0.15
X16 a_252_n3464# a4 a_122_n3464# DGND sky130_fd_pr__nfet_01v8 ad=0.105 pd=0.92 as=0.105 ps=0.92 w=0.42 l=0.15
X17 a_n138_n814# a2 DVDD DVDD sky130_fd_pr__pfet_01v8 ad=0.21 pd=1.34 as=0.21 ps=1.34 w=0.84 l=0.15
X18 a_122_n1626# a_n462_n1511# s2 DVDD sky130_fd_pr__pfet_01v8 ad=0.105 pd=0.92 as=0.105 ps=0.92 w=0.42 l=0.15
X19 a_2868_n2376# a_1698_n2990# s6 DGND sky130_fd_pr__nfet_01v8 ad=0.105 pd=0.92 as=0.105 ps=0.92 w=0.42 l=0.15
X20 a_1828_n2990# a_773_n3577# DVDD DVDD sky130_fd_pr__pfet_01v8 ad=0.21 pd=1.34 as=0.21 ps=1.34 w=0.84 l=0.15
X21 a_2608_n1288# a_1685_n1626# a_2478_n1288# DGND sky130_fd_pr__nfet_01v8 ad=0.105 pd=0.92 as=0.105 ps=0.92 w=0.42 l=0.15
X22 a_n398_n2376# a_n462_n2599# DGND DGND sky130_fd_pr__nfet_01v8 ad=0.105 pd=0.92 as=0.126 ps=1.44 w=0.42 l=0.15
X23 a_2868_n3802# a_n462_n3687# s5 DVDD sky130_fd_pr__pfet_01v8 ad=0.105 pd=0.92 as=0.105 ps=0.92 w=0.42 l=0.15
X24 a_1828_n1902# a_773_n2489# DVDD DVDD sky130_fd_pr__pfet_01v8 ad=0.21 pd=1.34 as=0.21 ps=1.34 w=0.84 l=0.15
X25 a_1568_n1902# a_773_n2489# a_1698_n1902# DVDD sky130_fd_pr__pfet_01v8 ad=0.21 pd=1.34 as=0.21 ps=1.34 w=0.84 l=0.15
X26 a_1961_n2714# a_773_n2489# DGND DGND sky130_fd_pr__nfet_01v8 ad=0.126 pd=1.44 as=0.126 ps=1.44 w=0.42 l=0.15
X27 a_n398_n2990# a4 DVDD DVDD sky130_fd_pr__pfet_01v8 ad=0.21 pd=1.34 as=0.252 ps=2.28 w=0.84 l=0.15
X28 a_2868_n538# a_1685_n538# DVDD DVDD sky130_fd_pr__pfet_01v8 ad=0.105 pd=0.92 as=0.105 ps=0.92 w=0.42 l=0.15
X29 a_n398_n1288# b2 a_n268_n1288# DGND sky130_fd_pr__nfet_01v8 ad=0.105 pd=0.92 as=0.105 ps=0.92 w=0.42 l=0.15
X30 DGND a3 a_n138_n2189# DGND sky130_fd_pr__nfet_01v8 ad=0.21 pd=1.34 as=0.21 ps=1.34 w=0.84 l=0.15
X31 a_n398_n3802# a_n462_n3687# DVDD DVDD sky130_fd_pr__pfet_01v8 ad=0.105 pd=0.92 as=0.126 ps=1.44 w=0.42 l=0.15
X32 a_n488_n3464# b4 a_n138_n3277# DGND sky130_fd_pr__nfet_01v8 ad=0.21 pd=1.34 as=0.21 ps=1.34 w=0.84 l=0.15
X33 a_2608_n2714# a_1685_n2714# a_2478_n2714# DVDD sky130_fd_pr__pfet_01v8 ad=0.105 pd=0.92 as=0.105 ps=0.92 w=0.42 l=0.15
X34 a_1145_n2714# a_1049_n2489# DGND DGND sky130_fd_pr__nfet_01v8 ad=0.126 pd=1.44 as=0.126 ps=1.44 w=0.42 l=0.15
X35 a_1961_n3802# a_773_n3577# DVDD DVDD sky130_fd_pr__pfet_01v8 ad=0.252 pd=2.28 as=0.252 ps=2.28 w=0.84 l=0.15
X36 a_2478_n3277# a_1698_n2990# a_2868_n3464# DGND sky130_fd_pr__nfet_01v8 ad=0.126 pd=1.44 as=0.105 ps=0.92 w=0.42 l=0.15
X37 a_n462_n2599# a_n462_n1511# a_n138_n1902# DVDD sky130_fd_pr__pfet_01v8 ad=0.21 pd=1.34 as=0.21 ps=1.34 w=0.84 l=0.15
X38 a_1145_n3802# a_1049_n3577# DVDD DVDD sky130_fd_pr__pfet_01v8 ad=0.252 pd=2.28 as=0.252 ps=2.28 w=0.84 l=0.15
X39 a_n398_n2714# b3 DVDD DVDD sky130_fd_pr__pfet_01v8 ad=0.105 pd=0.92 as=0.105 ps=0.92 w=0.42 l=0.15
X40 DGND a_1049_n313# a_3128_n13# DGND sky130_fd_pr__nfet_01v8 ad=0.252 pd=2.28 as=0.21 ps=1.34 w=0.84 l=0.15
X41 a_1685_n1626# a_1049_n1401# DVDD DVDD sky130_fd_pr__pfet_01v8 ad=0.252 pd=2.28 as=0.252 ps=2.28 w=0.84 l=0.15
X42 a_1568_n1902# a_1049_n2489# DVDD DVDD sky130_fd_pr__pfet_01v8 ad=0.21 pd=1.34 as=0.252 ps=2.28 w=0.84 l=0.15
X43 DVDD a4 a_n138_n2990# DVDD sky130_fd_pr__pfet_01v8 ad=0.21 pd=1.34 as=0.21 ps=1.34 w=0.84 l=0.15
X44 a_252_n200# a1 a_122_n200# DGND sky130_fd_pr__nfet_01v8 ad=0.105 pd=0.92 as=0.105 ps=0.92 w=0.42 l=0.15
X45 a_1828_n1902# a_1049_n2489# DVDD DVDD sky130_fd_pr__pfet_01v8 ad=0.21 pd=1.34 as=0.21 ps=1.34 w=0.84 l=0.15
X46 a_n138_n1902# a_n462_n1511# a_n462_n2599# DVDD sky130_fd_pr__pfet_01v8 ad=0.21 pd=1.34 as=0.21 ps=1.34 w=0.84 l=0.15
X47 DGND a_1049_n2489# a_3128_n2189# DGND sky130_fd_pr__nfet_01v8 ad=0.252 pd=2.28 as=0.21 ps=1.34 w=0.84 l=0.15
X48 a_2998_n200# a_1961_n538# a_2868_n200# DGND sky130_fd_pr__nfet_01v8 ad=0.105 pd=0.92 as=0.105 ps=0.92 w=0.42 l=0.15
X49 a_2388_n1101# a_773_n1401# a_2478_n1101# DGND sky130_fd_pr__nfet_01v8 ad=0.21 pd=1.34 as=0.21 ps=1.34 w=0.84 l=0.15
X50 s5 a_1698_n2990# a_2608_n3464# DGND sky130_fd_pr__nfet_01v8 ad=0.105 pd=0.92 as=0.105 ps=0.92 w=0.42 l=0.15
X51 a_869_n3802# a_773_n3577# DGND DGND sky130_fd_pr__nfet_01v8 ad=0.126 pd=1.44 as=0.126 ps=1.44 w=0.42 l=0.15
X52 a_n462_n3687# b4 a_n398_n3277# DGND sky130_fd_pr__nfet_01v8 ad=0.21 pd=1.34 as=0.21 ps=1.34 w=0.84 l=0.15
X53 s8 cout a_2608_n538# DVDD sky130_fd_pr__pfet_01v8 ad=0.105 pd=0.92 as=0.105 ps=0.92 w=0.42 l=0.15
X54 a_1828_n814# a_1049_n1401# DVDD DVDD sky130_fd_pr__pfet_01v8 ad=0.21 pd=1.34 as=0.21 ps=1.34 w=0.84 l=0.15
X55 a_n398_n1101# a2 DGND DGND sky130_fd_pr__nfet_01v8 ad=0.21 pd=1.34 as=0.252 ps=2.28 w=0.84 l=0.15
X56 a_2478_n2376# a_1961_n2714# DGND DGND sky130_fd_pr__nfet_01v8 ad=0.105 pd=0.92 as=0.126 ps=1.44 w=0.42 l=0.15
X57 a_2388_n13# a_1049_n313# DGND DGND sky130_fd_pr__nfet_01v8 ad=0.21 pd=1.34 as=0.21 ps=1.34 w=0.84 l=0.15
X58 a_1568_n814# a_1049_n1401# DVDD DVDD sky130_fd_pr__pfet_01v8 ad=0.21 pd=1.34 as=0.252 ps=2.28 w=0.84 l=0.15
X59 DVDD a_1049_n3577# a_1828_n2990# DVDD sky130_fd_pr__pfet_01v8 ad=0.21 pd=1.34 as=0.21 ps=1.34 w=0.84 l=0.15
X60 a_122_n200# a_n462_n423# s1 DGND sky130_fd_pr__nfet_01v8 ad=0.105 pd=0.92 as=0.105 ps=0.92 w=0.42 l=0.15
X61 a_1145_n538# a_1049_n313# DVDD DVDD sky130_fd_pr__pfet_01v8 ad=0.252 pd=2.28 as=0.252 ps=2.28 w=0.84 l=0.15
X62 s2 a_n71_n1421# a_n398_n1288# DGND sky130_fd_pr__nfet_01v8 ad=0.105 pd=0.92 as=0.105 ps=0.92 w=0.42 l=0.15
X63 a_2478_n3802# a_1961_n3802# DVDD DVDD sky130_fd_pr__pfet_01v8 ad=0.105 pd=0.92 as=0.126 ps=1.44 w=0.42 l=0.15
X64 DVDD a2 a_n138_n814# DVDD sky130_fd_pr__pfet_01v8 ad=0.21 pd=1.34 as=0.21 ps=1.34 w=0.84 l=0.15
X65 DGND a_773_n2489# a_2388_n2189# DGND sky130_fd_pr__nfet_01v8 ad=0.21 pd=1.34 as=0.21 ps=1.34 w=0.84 l=0.15
X66 a_252_n1626# a2 a_122_n1626# DVDD sky130_fd_pr__pfet_01v8 ad=0.105 pd=0.92 as=0.105 ps=0.92 w=0.42 l=0.15
X67 s3 a_n462_n1511# a_n398_n2714# DVDD sky130_fd_pr__pfet_01v8 ad=0.105 pd=0.92 as=0.105 ps=0.92 w=0.42 l=0.15
X68 DVDD a_1049_n313# a_1568_274# w_n755_206# sky130_fd_pr__pfet_01v8 ad=0.252 pd=2.28 as=0.21 ps=1.34 w=0.84 l=0.15
X69 a_1698_n814# a_1698_n1902# a_1828_n814# DVDD sky130_fd_pr__pfet_01v8 ad=0.21 pd=1.34 as=0.21 ps=1.34 w=0.84 l=0.15
X70 DGND b4 a_252_n3464# DGND sky130_fd_pr__nfet_01v8 ad=0.126 pd=1.44 as=0.105 ps=0.92 w=0.42 l=0.15
X71 a_n138_n3277# b4 a_n488_n3464# DGND sky130_fd_pr__nfet_01v8 ad=0.21 pd=1.34 as=0.21 ps=1.34 w=0.84 l=0.15
X72 DVDD a_1049_n313# a_1828_274# w_n755_206# sky130_fd_pr__pfet_01v8 ad=0.21 pd=1.34 as=0.21 ps=1.34 w=0.84 l=0.15
X73 a_2998_n2376# a_1961_n2714# a_2868_n2376# DGND sky130_fd_pr__nfet_01v8 ad=0.105 pd=0.92 as=0.105 ps=0.92 w=0.42 l=0.15
X74 DVDD a_773_n3577# a_1828_n2990# DVDD sky130_fd_pr__pfet_01v8 ad=0.21 pd=1.34 as=0.21 ps=1.34 w=0.84 l=0.15
X75 cout a_1698_n814# a_2388_n13# DGND sky130_fd_pr__nfet_01v8 ad=0.21 pd=1.34 as=0.21 ps=1.34 w=0.84 l=0.15
X76 a_n138_n814# b2 DVDD DVDD sky130_fd_pr__pfet_01v8 ad=0.21 pd=1.34 as=0.21 ps=1.34 w=0.84 l=0.15
X77 a_1698_n2990# a_n462_n3687# a_1828_n2990# DVDD sky130_fd_pr__pfet_01v8 ad=0.21 pd=1.34 as=0.21 ps=1.34 w=0.84 l=0.15
X78 DGND a_1049_n313# a_2388_n13# DGND sky130_fd_pr__nfet_01v8 ad=0.21 pd=1.34 as=0.252 ps=2.28 w=0.84 l=0.15
X79 a_n138_n814# b2 DVDD DVDD sky130_fd_pr__pfet_01v8 ad=0.21 pd=1.34 as=0.21 ps=1.34 w=0.84 l=0.15
X80 DVDD b3 a_n138_n1902# DVDD sky130_fd_pr__pfet_01v8 ad=0.21 pd=1.34 as=0.21 ps=1.34 w=0.84 l=0.15
X81 DVDD a_1961_n3802# a_2868_n3802# DVDD sky130_fd_pr__pfet_01v8 ad=0.105 pd=0.92 as=0.105 ps=0.92 w=0.42 l=0.15
X82 DVDD a_1049_n2489# a_1828_n1902# DVDD sky130_fd_pr__pfet_01v8 ad=0.21 pd=1.34 as=0.21 ps=1.34 w=0.84 l=0.15
X83 a_n268_n1288# a2 a_n398_n1288# DGND sky130_fd_pr__nfet_01v8 ad=0.105 pd=0.92 as=0.105 ps=0.92 w=0.42 l=0.15
X84 DVDD a_1698_n814# a_2868_n1626# DVDD sky130_fd_pr__pfet_01v8 ad=0.126 pd=1.44 as=0.105 ps=0.92 w=0.42 l=0.15
X85 a_n138_n2189# a3 DGND DGND sky130_fd_pr__nfet_01v8 ad=0.252 pd=2.28 as=0.21 ps=1.34 w=0.84 l=0.15
X86 a_n398_n200# a_n462_n423# DGND DGND sky130_fd_pr__nfet_01v8 ad=0.105 pd=0.92 as=0.126 ps=1.44 w=0.42 l=0.15
X87 a_2478_n1101# a_1049_n1401# a_2388_n1101# DGND sky130_fd_pr__nfet_01v8 ad=0.21 pd=1.34 as=0.252 ps=2.28 w=0.84 l=0.15
X88 a_1828_274# a_1049_n313# DVDD w_n755_206# sky130_fd_pr__pfet_01v8 ad=0.21 pd=1.34 as=0.21 ps=1.34 w=0.84 l=0.15
X89 a_1828_274# a_773_n313# DVDD w_n755_206# sky130_fd_pr__pfet_01v8 ad=0.21 pd=1.34 as=0.21 ps=1.34 w=0.84 l=0.15
X90 a_n398_n1902# b3 a_n462_n2599# DVDD sky130_fd_pr__pfet_01v8 ad=0.21 pd=1.34 as=0.21 ps=1.34 w=0.84 l=0.15
X91 DVDD a3 a_n398_n2714# DVDD sky130_fd_pr__pfet_01v8 ad=0.105 pd=0.92 as=0.105 ps=0.92 w=0.42 l=0.15
X92 a_2868_n200# a_1698_n814# s8 DGND sky130_fd_pr__nfet_01v8 ad=0.105 pd=0.92 as=0.105 ps=0.92 w=0.42 l=0.15
X93 a_2868_n2376# a_1685_n2714# a_2998_n2376# DGND sky130_fd_pr__nfet_01v8 ad=0.105 pd=0.92 as=0.105 ps=0.92 w=0.42 l=0.15
X94 a_1828_n2990# a_773_n3577# DVDD DVDD sky130_fd_pr__pfet_01v8 ad=0.21 pd=1.34 as=0.21 ps=1.34 w=0.84 l=0.15
X95 a_1698_n1902# a_773_n2489# a_1568_n1902# DVDD sky130_fd_pr__pfet_01v8 ad=0.21 pd=1.34 as=0.21 ps=1.34 w=0.84 l=0.15
X96 a_1568_n2990# a_773_n3577# a_1698_n2990# DVDD sky130_fd_pr__pfet_01v8 ad=0.21 pd=1.34 as=0.21 ps=1.34 w=0.84 l=0.15
X97 a_2388_n13# a_773_n313# DGND DGND sky130_fd_pr__nfet_01v8 ad=0.21 pd=1.34 as=0.21 ps=1.34 w=0.84 l=0.15
X98 a_869_n538# a_773_n313# DVDD DVDD sky130_fd_pr__pfet_01v8 ad=0.252 pd=2.28 as=0.252 ps=2.28 w=0.84 l=0.15
X99 a_122_n1288# a_n462_n1511# s2 DGND sky130_fd_pr__nfet_01v8 ad=0.105 pd=0.92 as=0.105 ps=0.92 w=0.42 l=0.15
X100 s7 a_1698_n814# a_2608_n1626# DVDD sky130_fd_pr__pfet_01v8 ad=0.105 pd=0.92 as=0.105 ps=0.92 w=0.42 l=0.15
X101 a_2868_n3802# a_1685_n3802# DVDD DVDD sky130_fd_pr__pfet_01v8 ad=0.105 pd=0.92 as=0.105 ps=0.92 w=0.42 l=0.15
X102 a_869_n1626# a_773_n1401# DVDD DVDD sky130_fd_pr__pfet_01v8 ad=0.252 pd=2.28 as=0.252 ps=2.28 w=0.84 l=0.15
X103 a_n462_n2599# b3 a_n398_n1902# DVDD sky130_fd_pr__pfet_01v8 ad=0.21 pd=1.34 as=0.21 ps=1.34 w=0.84 l=0.15
X104 a_n398_n814# a2 DVDD DVDD sky130_fd_pr__pfet_01v8 ad=0.21 pd=1.34 as=0.252 ps=2.28 w=0.84 l=0.15
X105 a_1698_n814# a_1698_n1902# a_2388_n1101# DGND sky130_fd_pr__nfet_01v8 ad=0.21 pd=1.34 as=0.21 ps=1.34 w=0.84 l=0.15
X106 a_2868_n3464# a_n462_n3687# s5 DGND sky130_fd_pr__nfet_01v8 ad=0.105 pd=0.92 as=0.105 ps=0.92 w=0.42 l=0.15
X107 a_n462_n3687# a_n462_n2599# a_n138_n2990# DVDD sky130_fd_pr__pfet_01v8 ad=0.21 pd=1.34 as=0.21 ps=1.34 w=0.84 l=0.15
X108 a_122_n2714# a_n462_n2599# s3 DVDD sky130_fd_pr__pfet_01v8 ad=0.105 pd=0.92 as=0.105 ps=0.92 w=0.42 l=0.15
X109 cout a_1698_n814# a_1828_274# w_n755_206# sky130_fd_pr__pfet_01v8 ad=0.21 pd=1.34 as=0.21 ps=1.34 w=0.84 l=0.15
X110 DVDD a_1049_n313# a_1828_274# w_n755_206# sky130_fd_pr__pfet_01v8 ad=0.21 pd=1.34 as=0.21 ps=1.34 w=0.84 l=0.15
X111 a_2868_n200# a_1685_n538# a_2998_n200# DGND sky130_fd_pr__nfet_01v8 ad=0.105 pd=0.92 as=0.105 ps=0.92 w=0.42 l=0.15
X112 a_2608_n2376# a_1685_n2714# a_2478_n2376# DGND sky130_fd_pr__nfet_01v8 ad=0.105 pd=0.92 as=0.105 ps=0.92 w=0.42 l=0.15
X113 a_n398_n3464# a_n462_n3687# a_n488_n3464# DGND sky130_fd_pr__nfet_01v8 ad=0.105 pd=0.92 as=0.126 ps=1.44 w=0.42 l=0.15
X114 a_1568_n2990# a_1049_n3577# DVDD DVDD sky130_fd_pr__pfet_01v8 ad=0.21 pd=1.34 as=0.252 ps=2.28 w=0.84 l=0.15
X115 a_1828_n814# a_773_n1401# DVDD DVDD sky130_fd_pr__pfet_01v8 ad=0.21 pd=1.34 as=0.21 ps=1.34 w=0.84 l=0.15
X116 a_1961_n3802# a_773_n3577# DGND DGND sky130_fd_pr__nfet_01v8 ad=0.126 pd=1.44 as=0.126 ps=1.44 w=0.42 l=0.15
X117 a_1828_n2990# a_1049_n3577# DVDD DVDD sky130_fd_pr__pfet_01v8 ad=0.21 pd=1.34 as=0.21 ps=1.34 w=0.84 l=0.15
X118 a_2608_n3802# a_1685_n3802# a_2478_n3802# DVDD sky130_fd_pr__pfet_01v8 ad=0.105 pd=0.92 as=0.105 ps=0.92 w=0.42 l=0.15
X119 a_n488_n3464# a4 a_n138_n3277# DGND sky130_fd_pr__nfet_01v8 ad=0.21 pd=1.34 as=0.21 ps=1.34 w=0.84 l=0.15
X120 a_n138_n13# a1 DGND DGND sky130_fd_pr__nfet_01v8 ad=0.252 pd=2.28 as=0.21 ps=1.34 w=0.84 l=0.15
X121 DGND a_773_n313# a_2388_n13# DGND sky130_fd_pr__nfet_01v8 ad=0.21 pd=1.34 as=0.21 ps=1.34 w=0.84 l=0.15
X122 a_n398_n2376# b3 a_n268_n2376# DGND sky130_fd_pr__nfet_01v8 ad=0.105 pd=0.92 as=0.105 ps=0.92 w=0.42 l=0.15
X123 a_n138_n2990# a_n462_n2599# a_n462_n3687# DVDD sky130_fd_pr__pfet_01v8 ad=0.21 pd=1.34 as=0.21 ps=1.34 w=0.84 l=0.15
X124 DVDD b2 a_n138_n814# DVDD sky130_fd_pr__pfet_01v8 ad=0.21 pd=1.34 as=0.21 ps=1.34 w=0.84 l=0.15
X125 a_1685_n1626# a_1049_n1401# DGND DGND sky130_fd_pr__nfet_01v8 ad=0.126 pd=1.44 as=0.126 ps=1.44 w=0.42 l=0.15
X126 a_n138_n1902# b3 DVDD DVDD sky130_fd_pr__pfet_01v8 ad=0.21 pd=1.34 as=0.21 ps=1.34 w=0.84 l=0.15
X127 a_2388_n2189# a_773_n2489# DGND DGND sky130_fd_pr__nfet_01v8 ad=0.21 pd=1.34 as=0.21 ps=1.34 w=0.84 l=0.15
X128 a_1145_n3802# a_1049_n3577# DGND DGND sky130_fd_pr__nfet_01v8 ad=0.126 pd=1.44 as=0.126 ps=1.44 w=0.42 l=0.15
X129 DVDD b2 a_252_n1626# DVDD sky130_fd_pr__pfet_01v8 ad=0.126 pd=1.44 as=0.105 ps=0.92 w=0.42 l=0.15
X130 a_n398_n3802# b4 DVDD DVDD sky130_fd_pr__pfet_01v8 ad=0.105 pd=0.92 as=0.105 ps=0.92 w=0.42 l=0.15
X131 DVDD a1 a_n398_n538# DVDD sky130_fd_pr__pfet_01v8 ad=0.105 pd=0.92 as=0.105 ps=0.92 w=0.42 l=0.15
X132 a_n398_n2189# a3 DGND DGND sky130_fd_pr__nfet_01v8 ad=0.21 pd=1.34 as=0.252 ps=2.28 w=0.84 l=0.15
X133 DVDD a1 a_n138_274# w_n755_206# sky130_fd_pr__pfet_01v8 ad=0.21 pd=1.34 as=0.21 ps=1.34 w=0.84 l=0.15
X134 a_1828_274# a_773_n313# DVDD w_n755_206# sky130_fd_pr__pfet_01v8 ad=0.21 pd=1.34 as=0.21 ps=1.34 w=0.84 l=0.15
X135 a_3128_n1101# a_773_n1401# a_1698_n814# DGND sky130_fd_pr__nfet_01v8 ad=0.21 pd=1.34 as=0.21 ps=1.34 w=0.84 l=0.15
X136 a_1685_n2714# a_1049_n2489# DVDD DVDD sky130_fd_pr__pfet_01v8 ad=0.252 pd=2.28 as=0.252 ps=2.28 w=0.84 l=0.15
X137 a_1828_274# a_1698_n814# cout w_n755_206# sky130_fd_pr__pfet_01v8 ad=0.21 pd=1.34 as=0.21 ps=1.34 w=0.84 l=0.15
X138 a_1828_274# a_1049_n313# DVDD w_n755_206# sky130_fd_pr__pfet_01v8 ad=0.21 pd=1.34 as=0.21 ps=1.34 w=0.84 l=0.15
X139 a_1568_n814# a_773_n1401# a_1698_n814# DVDD sky130_fd_pr__pfet_01v8 ad=0.21 pd=1.34 as=0.21 ps=1.34 w=0.84 l=0.15
X140 a_n138_n1902# a3 DVDD DVDD sky130_fd_pr__pfet_01v8 ad=0.21 pd=1.34 as=0.21 ps=1.34 w=0.84 l=0.15
X141 a_2478_n3277# a_1049_n3577# a_3128_n3277# DGND sky130_fd_pr__nfet_01v8 ad=0.252 pd=2.28 as=0.21 ps=1.34 w=0.84 l=0.15
X142 DGND a1 a_n138_n13# DGND sky130_fd_pr__nfet_01v8 ad=0.21 pd=1.34 as=0.21 ps=1.34 w=0.84 l=0.15
X143 s8 cout a_2608_n200# DGND sky130_fd_pr__nfet_01v8 ad=0.105 pd=0.92 as=0.105 ps=0.92 w=0.42 l=0.15
X144 a_1145_n538# a_1049_n313# DGND DGND sky130_fd_pr__nfet_01v8 ad=0.126 pd=1.44 as=0.126 ps=1.44 w=0.42 l=0.15
X145 a_2388_n1101# a_1049_n1401# a_2478_n1101# DGND sky130_fd_pr__nfet_01v8 ad=0.21 pd=1.34 as=0.21 ps=1.34 w=0.84 l=0.15
X146 a_2478_n3464# a_1961_n3802# DGND DGND sky130_fd_pr__nfet_01v8 ad=0.105 pd=0.92 as=0.126 ps=1.44 w=0.42 l=0.15
X147 a_n138_274# b1 DVDD w_n755_206# sky130_fd_pr__pfet_01v8 ad=0.21 pd=1.34 as=0.21 ps=1.34 w=0.84 l=0.15
X148 DVDD a3 a_n398_n1902# DVDD sky130_fd_pr__pfet_01v8 ad=0.252 pd=2.28 as=0.21 ps=1.34 w=0.84 l=0.15
X149 a_n138_274# a1 DVDD w_n755_206# sky130_fd_pr__pfet_01v8 ad=0.21 pd=1.34 as=0.21 ps=1.34 w=0.84 l=0.15
X150 DVDD a_773_n313# a_1828_274# w_n755_206# sky130_fd_pr__pfet_01v8 ad=0.21 pd=1.34 as=0.21 ps=1.34 w=0.84 l=0.15
X151 a_n138_n1101# a_n462_n423# a_n462_n1511# DGND sky130_fd_pr__nfet_01v8 ad=0.21 pd=1.34 as=0.21 ps=1.34 w=0.84 l=0.15
X152 a_252_n1288# a2 a_122_n1288# DGND sky130_fd_pr__nfet_01v8 ad=0.105 pd=0.92 as=0.105 ps=0.92 w=0.42 l=0.15
X153 s3 a_n462_n1511# a_n398_n2376# DGND sky130_fd_pr__nfet_01v8 ad=0.105 pd=0.92 as=0.105 ps=0.92 w=0.42 l=0.15
X154 DVDD b4 a_n138_n2990# DVDD sky130_fd_pr__pfet_01v8 ad=0.21 pd=1.34 as=0.21 ps=1.34 w=0.84 l=0.15
X155 cout a_773_n313# a_1568_274# w_n755_206# sky130_fd_pr__pfet_01v8 ad=0.21 pd=1.34 as=0.21 ps=1.34 w=0.84 l=0.15
X156 a_1828_n1902# a_1698_n2990# a_1698_n1902# DVDD sky130_fd_pr__pfet_01v8 ad=0.21 pd=1.34 as=0.21 ps=1.34 w=0.84 l=0.15
X157 a_2478_n3277# a_773_n3577# a_2388_n3277# DGND sky130_fd_pr__nfet_01v8 ad=0.21 pd=1.34 as=0.21 ps=1.34 w=0.84 l=0.15
X158 DVDD a_1049_n3577# a_1828_n2990# DVDD sky130_fd_pr__pfet_01v8 ad=0.21 pd=1.34 as=0.21 ps=1.34 w=0.84 l=0.15
X159 s4 a_n462_n2599# a_n398_n3802# DVDD sky130_fd_pr__pfet_01v8 ad=0.105 pd=0.92 as=0.105 ps=0.92 w=0.42 l=0.15
X160 a_252_n2714# a3 a_122_n2714# DVDD sky130_fd_pr__pfet_01v8 ad=0.105 pd=0.92 as=0.105 ps=0.92 w=0.42 l=0.15
X161 DVDD a_773_n1401# a_1828_n814# DVDD sky130_fd_pr__pfet_01v8 ad=0.21 pd=1.34 as=0.21 ps=1.34 w=0.84 l=0.15
X162 a_2868_n1626# a_1698_n1902# s7 DVDD sky130_fd_pr__pfet_01v8 ad=0.105 pd=0.92 as=0.105 ps=0.92 w=0.42 l=0.15
X163 DGND a_1049_n2489# a_2388_n2189# DGND sky130_fd_pr__nfet_01v8 ad=0.21 pd=1.34 as=0.252 ps=2.28 w=0.84 l=0.15
X164 s1 cin a_n398_n538# DVDD sky130_fd_pr__pfet_01v8 ad=0.105 pd=0.92 as=0.105 ps=0.92 w=0.42 l=0.15
X165 DVDD a_773_n1401# a_1828_n814# DVDD sky130_fd_pr__pfet_01v8 ad=0.21 pd=1.34 as=0.21 ps=1.34 w=0.84 l=0.15
X166 a_2998_n3464# a_1961_n3802# a_2868_n3464# DGND sky130_fd_pr__nfet_01v8 ad=0.105 pd=0.92 as=0.105 ps=0.92 w=0.42 l=0.15
X167 a_n398_n2990# b4 a_n462_n3687# DVDD sky130_fd_pr__pfet_01v8 ad=0.21 pd=1.34 as=0.21 ps=1.34 w=0.84 l=0.15
X168 a_n138_n814# a2 DVDD DVDD sky130_fd_pr__pfet_01v8 ad=0.21 pd=1.34 as=0.21 ps=1.34 w=0.84 l=0.15
X169 a_n398_n1626# a_n462_n1511# DVDD DVDD sky130_fd_pr__pfet_01v8 ad=0.105 pd=0.92 as=0.126 ps=1.44 w=0.42 l=0.15
X170 DVDD b1 a_n138_274# w_n755_206# sky130_fd_pr__pfet_01v8 ad=0.21 pd=1.34 as=0.21 ps=1.34 w=0.84 l=0.15
X171 a_1961_n1626# a_773_n1401# DVDD DVDD sky130_fd_pr__pfet_01v8 ad=0.252 pd=2.28 as=0.252 ps=2.28 w=0.84 l=0.15
X172 a_1698_n2990# a_773_n3577# a_1568_n2990# DVDD sky130_fd_pr__pfet_01v8 ad=0.21 pd=1.34 as=0.21 ps=1.34 w=0.84 l=0.15
X173 DVDD a1 a_n138_274# w_n755_206# sky130_fd_pr__pfet_01v8 ad=0.21 pd=1.34 as=0.21 ps=1.34 w=0.84 l=0.15
X174 a_n398_n538# b1 DVDD DVDD sky130_fd_pr__pfet_01v8 ad=0.105 pd=0.92 as=0.105 ps=0.92 w=0.42 l=0.15
X175 a_2478_n1101# a_1698_n814# a_2868_n1288# DGND sky130_fd_pr__nfet_01v8 ad=0.126 pd=1.44 as=0.105 ps=0.92 w=0.42 l=0.15
X176 DVDD a3 a_n138_n1902# DVDD sky130_fd_pr__pfet_01v8 ad=0.21 pd=1.34 as=0.21 ps=1.34 w=0.84 l=0.15
X177 a_1568_274# a_1049_n313# DVDD w_n755_206# sky130_fd_pr__pfet_01v8 ad=0.21 pd=1.34 as=0.252 ps=2.28 w=0.84 l=0.15
X178 DVDD a2 a_n398_n814# DVDD sky130_fd_pr__pfet_01v8 ad=0.252 pd=2.28 as=0.21 ps=1.34 w=0.84 l=0.15
X179 a_1145_n1626# a_1049_n1401# DVDD DVDD sky130_fd_pr__pfet_01v8 ad=0.252 pd=2.28 as=0.252 ps=2.28 w=0.84 l=0.15
X180 a_n138_n3277# a4 a_n488_n3464# DGND sky130_fd_pr__nfet_01v8 ad=0.252 pd=2.28 as=0.21 ps=1.34 w=0.84 l=0.15
X181 a_n268_n2376# a3 a_n398_n2376# DGND sky130_fd_pr__nfet_01v8 ad=0.105 pd=0.92 as=0.105 ps=0.92 w=0.42 l=0.15
X182 a_n462_n3687# b4 a_n398_n2990# DVDD sky130_fd_pr__pfet_01v8 ad=0.21 pd=1.34 as=0.21 ps=1.34 w=0.84 l=0.15
X183 DVDD a_1698_n1902# a_2868_n2714# DVDD sky130_fd_pr__pfet_01v8 ad=0.126 pd=1.44 as=0.105 ps=0.92 w=0.42 l=0.15
X184 a_2608_n538# a_1685_n538# a_2478_n538# DVDD sky130_fd_pr__pfet_01v8 ad=0.105 pd=0.92 as=0.105 ps=0.92 w=0.42 l=0.15
X185 DVDD a_1049_n1401# a_1828_n814# DVDD sky130_fd_pr__pfet_01v8 ad=0.21 pd=1.34 as=0.21 ps=1.34 w=0.84 l=0.15
X186 a_1698_n1902# a_1698_n2990# a_2388_n2189# DGND sky130_fd_pr__nfet_01v8 ad=0.21 pd=1.34 as=0.21 ps=1.34 w=0.84 l=0.15
X187 DGND b1 a_n138_n13# DGND sky130_fd_pr__nfet_01v8 ad=0.21 pd=1.34 as=0.21 ps=1.34 w=0.84 l=0.15
X188 DVDD a4 a_n398_n3802# DVDD sky130_fd_pr__pfet_01v8 ad=0.105 pd=0.92 as=0.105 ps=0.92 w=0.42 l=0.15
X189 DGND b2 a_n138_n1101# DGND sky130_fd_pr__nfet_01v8 ad=0.21 pd=1.34 as=0.21 ps=1.34 w=0.84 l=0.15
X190 a_869_n538# a_773_n313# DGND DGND sky130_fd_pr__nfet_01v8 ad=0.126 pd=1.44 as=0.126 ps=1.44 w=0.42 l=0.15
X191 s7 a_1698_n814# a_2608_n1288# DGND sky130_fd_pr__nfet_01v8 ad=0.105 pd=0.92 as=0.105 ps=0.92 w=0.42 l=0.15
X192 a_2868_n3464# a_1685_n3802# a_2998_n3464# DGND sky130_fd_pr__nfet_01v8 ad=0.105 pd=0.92 as=0.105 ps=0.92 w=0.42 l=0.15
X193 a_869_n1626# a_773_n1401# DGND DGND sky130_fd_pr__nfet_01v8 ad=0.126 pd=1.44 as=0.126 ps=1.44 w=0.42 l=0.15
X194 DVDD b3 a_n138_n1902# DVDD sky130_fd_pr__pfet_01v8 ad=0.21 pd=1.34 as=0.21 ps=1.34 w=0.84 l=0.15
X195 a_n138_274# a1 DVDD w_n755_206# sky130_fd_pr__pfet_01v8 ad=0.21 pd=1.34 as=0.21 ps=1.34 w=0.84 l=0.15
X196 DVDD a_1049_n2489# a_1568_n1902# DVDD sky130_fd_pr__pfet_01v8 ad=0.252 pd=2.28 as=0.21 ps=1.34 w=0.84 l=0.15
X197 a_122_n2376# a_n462_n2599# s3 DGND sky130_fd_pr__nfet_01v8 ad=0.105 pd=0.92 as=0.105 ps=0.92 w=0.42 l=0.15
X198 DVDD a1 a_n398_274# w_n755_206# sky130_fd_pr__pfet_01v8 ad=0.252 pd=2.28 as=0.21 ps=1.34 w=0.84 l=0.15
X199 DVDD a_773_n313# a_1828_274# w_n755_206# sky130_fd_pr__pfet_01v8 ad=0.21 pd=1.34 as=0.21 ps=1.34 w=0.84 l=0.15
X200 a_n462_n423# b1 a_n398_n13# DGND sky130_fd_pr__nfet_01v8 ad=0.21 pd=1.34 as=0.21 ps=1.34 w=0.84 l=0.15
X201 a_n138_n13# b1 DGND DGND sky130_fd_pr__nfet_01v8 ad=0.21 pd=1.34 as=0.21 ps=1.34 w=0.84 l=0.15
X202 a_n138_n2990# b4 DVDD DVDD sky130_fd_pr__pfet_01v8 ad=0.21 pd=1.34 as=0.21 ps=1.34 w=0.84 l=0.15
X203 s6 a_1698_n1902# a_2608_n2714# DVDD sky130_fd_pr__pfet_01v8 ad=0.105 pd=0.92 as=0.105 ps=0.92 w=0.42 l=0.15
X204 a_869_n2714# a_773_n2489# DVDD DVDD sky130_fd_pr__pfet_01v8 ad=0.252 pd=2.28 as=0.252 ps=2.28 w=0.84 l=0.15
X205 a_2478_n1626# a_1961_n1626# DVDD DVDD sky130_fd_pr__pfet_01v8 ad=0.105 pd=0.92 as=0.126 ps=1.44 w=0.42 l=0.15
X206 a_122_n3802# a_n462_n3687# s4 DVDD sky130_fd_pr__pfet_01v8 ad=0.105 pd=0.92 as=0.105 ps=0.92 w=0.42 l=0.15
X207 a_3128_n2189# a_773_n2489# a_1698_n1902# DGND sky130_fd_pr__nfet_01v8 ad=0.21 pd=1.34 as=0.21 ps=1.34 w=0.84 l=0.15
X208 a_2608_n3464# a_1685_n3802# a_2478_n3464# DGND sky130_fd_pr__nfet_01v8 ad=0.105 pd=0.92 as=0.105 ps=0.92 w=0.42 l=0.15
X209 a_n138_n2990# a4 DVDD DVDD sky130_fd_pr__pfet_01v8 ad=0.21 pd=1.34 as=0.21 ps=1.34 w=0.84 l=0.15
X210 a_n462_n1511# b2 a_n398_n1101# DGND sky130_fd_pr__nfet_01v8 ad=0.21 pd=1.34 as=0.21 ps=1.34 w=0.84 l=0.15
X211 DGND b2 a_252_n1288# DGND sky130_fd_pr__nfet_01v8 ad=0.126 pd=1.44 as=0.105 ps=0.92 w=0.42 l=0.15
X212 DVDD a_773_n2489# a_1828_n1902# DVDD sky130_fd_pr__pfet_01v8 ad=0.21 pd=1.34 as=0.21 ps=1.34 w=0.84 l=0.15
X213 a_n398_n3464# b4 a_n268_n3464# DGND sky130_fd_pr__nfet_01v8 ad=0.105 pd=0.92 as=0.105 ps=0.92 w=0.42 l=0.15
X214 a_n268_n200# a1 a_n398_n200# DGND sky130_fd_pr__nfet_01v8 ad=0.105 pd=0.92 as=0.105 ps=0.92 w=0.42 l=0.15
X215 a_1961_n538# a_773_n313# DVDD DVDD sky130_fd_pr__pfet_01v8 ad=0.252 pd=2.28 as=0.252 ps=2.28 w=0.84 l=0.15
X216 a_2388_n3277# a_773_n3577# a_2478_n3277# DGND sky130_fd_pr__nfet_01v8 ad=0.21 pd=1.34 as=0.21 ps=1.34 w=0.84 l=0.15
X217 DVDD b1 a_n138_274# w_n755_206# sky130_fd_pr__pfet_01v8 ad=0.21 pd=1.34 as=0.21 ps=1.34 w=0.84 l=0.15
X218 a_n138_n13# cin a_n462_n423# DGND sky130_fd_pr__nfet_01v8 ad=0.21 pd=1.34 as=0.21 ps=1.34 w=0.84 l=0.15
X219 a_1685_n2714# a_1049_n2489# DGND DGND sky130_fd_pr__nfet_01v8 ad=0.126 pd=1.44 as=0.126 ps=1.44 w=0.42 l=0.15
X220 DVDD b3 a_252_n2714# DVDD sky130_fd_pr__pfet_01v8 ad=0.126 pd=1.44 as=0.105 ps=0.92 w=0.42 l=0.15
X221 a_n398_274# b1 a_n462_n423# w_n755_206# sky130_fd_pr__pfet_01v8 ad=0.21 pd=1.34 as=0.21 ps=1.34 w=0.84 l=0.15
X222 DVDD a_1961_n1626# a_2868_n1626# DVDD sky130_fd_pr__pfet_01v8 ad=0.105 pd=0.92 as=0.105 ps=0.92 w=0.42 l=0.15
X223 a_2388_n2189# a_1049_n2489# DGND DGND sky130_fd_pr__nfet_01v8 ad=0.21 pd=1.34 as=0.21 ps=1.34 w=0.84 l=0.15
X224 a_n398_n3277# a4 a_n488_n3464# DGND sky130_fd_pr__nfet_01v8 ad=0.21 pd=1.34 as=0.252 ps=2.28 w=0.84 l=0.15
X225 a_n398_n814# b2 a_n462_n1511# DVDD sky130_fd_pr__pfet_01v8 ad=0.21 pd=1.34 as=0.21 ps=1.34 w=0.84 l=0.15
X226 a_1685_n3802# a_1049_n3577# DVDD DVDD sky130_fd_pr__pfet_01v8 ad=0.252 pd=2.28 as=0.252 ps=2.28 w=0.84 l=0.15
X227 DVDD cout a_2868_n538# DVDD sky130_fd_pr__pfet_01v8 ad=0.126 pd=1.44 as=0.105 ps=0.92 w=0.42 l=0.15
X228 DVDD a4 a_n398_n2990# DVDD sky130_fd_pr__pfet_01v8 ad=0.252 pd=2.28 as=0.21 ps=1.34 w=0.84 l=0.15
X229 a_n462_n423# b1 a_n398_274# w_n755_206# sky130_fd_pr__pfet_01v8 ad=0.21 pd=1.34 as=0.21 ps=1.34 w=0.84 l=0.15
X230 a_2478_n538# a_1961_n538# DVDD DVDD sky130_fd_pr__pfet_01v8 ad=0.105 pd=0.92 as=0.126 ps=1.44 w=0.42 l=0.15
X231 a_1828_n814# a_773_n1401# DVDD DVDD sky130_fd_pr__pfet_01v8 ad=0.21 pd=1.34 as=0.21 ps=1.34 w=0.84 l=0.15
X232 a_n138_n2189# a_n462_n1511# a_n462_n2599# DGND sky130_fd_pr__nfet_01v8 ad=0.21 pd=1.34 as=0.21 ps=1.34 w=0.84 l=0.15
X233 a_n138_274# b1 DVDD w_n755_206# sky130_fd_pr__pfet_01v8 ad=0.21 pd=1.34 as=0.21 ps=1.34 w=0.84 l=0.15
X234 a_n138_n1101# b2 DGND DGND sky130_fd_pr__nfet_01v8 ad=0.21 pd=1.34 as=0.21 ps=1.34 w=0.84 l=0.15
X235 a_1828_n2990# a_n462_n3687# a_1698_n2990# DVDD sky130_fd_pr__pfet_01v8 ad=0.21 pd=1.34 as=0.21 ps=1.34 w=0.84 l=0.15
X236 a_n138_n1902# a3 DVDD DVDD sky130_fd_pr__pfet_01v8 ad=0.21 pd=1.34 as=0.21 ps=1.34 w=0.84 l=0.15
X237 DVDD b1 a_252_n538# DVDD sky130_fd_pr__pfet_01v8 ad=0.126 pd=1.44 as=0.105 ps=0.92 w=0.42 l=0.15
X238 a_n462_n1511# b2 a_n398_n814# DVDD sky130_fd_pr__pfet_01v8 ad=0.21 pd=1.34 as=0.21 ps=1.34 w=0.84 l=0.15
X239 a_n462_n423# cin a_n138_274# w_n755_206# sky130_fd_pr__pfet_01v8 ad=0.21 pd=1.34 as=0.21 ps=1.34 w=0.84 l=0.15
X240 a_2868_n1626# a_1685_n1626# DVDD DVDD sky130_fd_pr__pfet_01v8 ad=0.105 pd=0.92 as=0.105 ps=0.92 w=0.42 l=0.15
X241 a_252_n2376# a3 a_122_n2376# DGND sky130_fd_pr__nfet_01v8 ad=0.105 pd=0.92 as=0.105 ps=0.92 w=0.42 l=0.15
X242 s4 a_n462_n2599# a_n398_n3464# DGND sky130_fd_pr__nfet_01v8 ad=0.105 pd=0.92 as=0.105 ps=0.92 w=0.42 l=0.15
X243 a_2868_n1288# a_1698_n1902# s7 DGND sky130_fd_pr__nfet_01v8 ad=0.105 pd=0.92 as=0.105 ps=0.92 w=0.42 l=0.15
X244 DVDD a4 a_n138_n2990# DVDD sky130_fd_pr__pfet_01v8 ad=0.21 pd=1.34 as=0.21 ps=1.34 w=0.84 l=0.15
X245 a_n138_274# cin a_n462_n423# w_n755_206# sky130_fd_pr__pfet_01v8 ad=0.21 pd=1.34 as=0.21 ps=1.34 w=0.84 l=0.15
X246 s1 cin a_n398_n200# DGND sky130_fd_pr__nfet_01v8 ad=0.105 pd=0.92 as=0.105 ps=0.92 w=0.42 l=0.15
X247 a_1685_n538# a_1049_n313# DVDD DVDD sky130_fd_pr__pfet_01v8 ad=0.252 pd=2.28 as=0.252 ps=2.28 w=0.84 l=0.15
X248 a_n138_n1902# b3 DVDD DVDD sky130_fd_pr__pfet_01v8 ad=0.21 pd=1.34 as=0.21 ps=1.34 w=0.84 l=0.15
X249 a_1828_n1902# a_1049_n2489# DVDD DVDD sky130_fd_pr__pfet_01v8 ad=0.21 pd=1.34 as=0.21 ps=1.34 w=0.84 l=0.15
X250 a_252_n3802# a4 a_122_n3802# DVDD sky130_fd_pr__pfet_01v8 ad=0.105 pd=0.92 as=0.105 ps=0.92 w=0.42 l=0.15
X251 a_n398_n1288# a_n462_n1511# DGND DGND sky130_fd_pr__nfet_01v8 ad=0.105 pd=0.92 as=0.126 ps=1.44 w=0.42 l=0.15
X252 a_2478_n3277# a_1049_n3577# a_2388_n3277# DGND sky130_fd_pr__nfet_01v8 ad=0.21 pd=1.34 as=0.252 ps=2.28 w=0.84 l=0.15
X253 a_2868_n2714# a_1698_n2990# s6 DVDD sky130_fd_pr__pfet_01v8 ad=0.105 pd=0.92 as=0.105 ps=0.92 w=0.42 l=0.15
X254 a_n398_n13# a1 DGND DGND sky130_fd_pr__nfet_01v8 ad=0.21 pd=1.34 as=0.252 ps=2.28 w=0.84 l=0.15
X255 a_1961_n1626# a_773_n1401# DGND DGND sky130_fd_pr__nfet_01v8 ad=0.126 pd=1.44 as=0.126 ps=1.44 w=0.42 l=0.15
X256 a_n398_n200# b1 a_n268_n200# DGND sky130_fd_pr__nfet_01v8 ad=0.105 pd=0.92 as=0.105 ps=0.92 w=0.42 l=0.15
X257 a_2608_n1626# a_1685_n1626# a_2478_n1626# DVDD sky130_fd_pr__pfet_01v8 ad=0.105 pd=0.92 as=0.105 ps=0.92 w=0.42 l=0.15
X258 DGND b3 a_n138_n2189# DGND sky130_fd_pr__nfet_01v8 ad=0.21 pd=1.34 as=0.21 ps=1.34 w=0.84 l=0.15
X259 a_n398_n2714# a_n462_n2599# DVDD DVDD sky130_fd_pr__pfet_01v8 ad=0.105 pd=0.92 as=0.126 ps=1.44 w=0.42 l=0.15
X260 a_1145_n1626# a_1049_n1401# DGND DGND sky130_fd_pr__nfet_01v8 ad=0.126 pd=1.44 as=0.126 ps=1.44 w=0.42 l=0.15
X261 a_1961_n2714# a_773_n2489# DVDD DVDD sky130_fd_pr__pfet_01v8 ad=0.252 pd=2.28 as=0.252 ps=2.28 w=0.84 l=0.15
X262 a_n398_n1626# b2 DVDD DVDD sky130_fd_pr__pfet_01v8 ad=0.105 pd=0.92 as=0.105 ps=0.92 w=0.42 l=0.15
X263 DGND a_1698_n1902# a_2868_n2376# DGND sky130_fd_pr__nfet_01v8 ad=0.126 pd=1.44 as=0.105 ps=0.92 w=0.42 l=0.15
X264 DVDD b4 a_n138_n2990# DVDD sky130_fd_pr__pfet_01v8 ad=0.21 pd=1.34 as=0.21 ps=1.34 w=0.84 l=0.15
X265 a_2608_n200# a_1685_n538# a_2478_n200# DGND sky130_fd_pr__nfet_01v8 ad=0.105 pd=0.92 as=0.105 ps=0.92 w=0.42 l=0.15