* NGSPICE file created from rca8b.ext - technology: sky130A
.subckt rca8b a8 b8 DGND cout DVDD a7 b7 a6 b6 b5 a5 a4 b4 a3 b3 a2 b2 a1 b1 cin s8
+ s7 s6 s5 s4 s3 s2 s1
X0 DGND.t131 a1.t0 a_252_n200# DGND.t129 sky130_fd_pr__nfet_01v8 ad=0.126 pd=1.44 as=0.105 ps=0.92 w=0.42 l=0.15
X1 DVDD.t196 a_n331_n1509# a_n398_n1626# DVDD.t172 sky130_fd_pr__pfet_01v8 ad=0.105 pd=0.92 as=0.105 ps=0.92 w=0.42 l=0.15
X2 a_n494_n905# a2.t0 DVDD.t8 DVDD.t7 sky130_fd_pr__pfet_01v8 ad=0.252 pd=2.28 as=0.252 ps=2.28 w=0.84 l=0.15
X3 a_n354_n3081# b4.t0 DVDD.t244 DVDD.t243 sky130_fd_pr__pfet_01v8 ad=0.252 pd=2.28 as=0.252 ps=2.28 w=0.84 l=0.15
X4 a_n138_n2990# a_n354_n3081# DVDD.t195 DVDD.t194 sky130_fd_pr__pfet_01v8 ad=0.21 pd=1.34 as=0.21 ps=1.34 w=0.84 l=0.15
X5 a_n398_n538# cin.t0 DVDD.t143 DVDD.t142 sky130_fd_pr__pfet_01v8 ad=0.105 pd=0.92 as=0.126 ps=1.44 w=0.42 l=0.15
X6 a_n201_n1421# a2.t1 DVDD.t69 DVDD.t68 sky130_fd_pr__pfet_01v8 ad=0.252 pd=2.28 as=0.252 ps=2.28 w=0.84 l=0.15
X7 a_1698_n2728# a_1698_n3816# a_1828_n2728# DVDD.t135 sky130_fd_pr__pfet_01v8 ad=0.21 pd=1.34 as=0.21 ps=1.34 w=0.84 l=0.15
X8 DVDD.t232 a_1572_n2170# a_1828_n2728# DVDD.t231 sky130_fd_pr__pfet_01v8 ad=0.21 pd=1.34 as=0.21 ps=1.34 w=0.84 l=0.15
X9 a_2868_344# cout.t6 s8.t3 DVDD.t233 sky130_fd_pr__pfet_01v8 ad=0.105 pd=0.92 as=0.105 ps=0.92 w=0.42 l=0.15
X10 s5.t3 a_n268_n3277# a_2608_n2920# DVDD.t226 sky130_fd_pr__pfet_01v8 ad=0.105 pd=0.92 as=0.105 ps=0.92 w=0.42 l=0.15
X11 s8.t0 a_1698_n1640# a_2608_6# DGND.t43 sky130_fd_pr__nfet_01v8 ad=0.105 pd=0.92 as=0.105 ps=0.92 w=0.42 l=0.15
X12 a_1698_n1640# b7.t0 a_1568_n1640# DVDD.t115 sky130_fd_pr__pfet_01v8 ad=0.21 pd=1.34 as=0.21 ps=1.34 w=0.84 l=0.15
X13 a_n138_n1101# a_n494_n905# DGND.t119 DGND.t118 sky130_fd_pr__nfet_01v8 ad=0.252 pd=2.28 as=0.21 ps=1.34 w=0.84 l=0.15
X14 s6.t1 a_1698_n3816# a_2608_n1832# DVDD.t3 sky130_fd_pr__pfet_01v8 ad=0.105 pd=0.92 as=0.105 ps=0.92 w=0.42 l=0.15
X15 a_252_n3464# a_n331_n3685# a_122_n3464# DGND.t57 sky130_fd_pr__nfet_01v8 ad=0.105 pd=0.92 as=0.105 ps=0.92 w=0.42 l=0.15
X16 DVDD.t221 a_1518_n346# a_1828_n552# DVDD.t1 sky130_fd_pr__pfet_01v8 ad=0.21 pd=1.34 as=0.21 ps=1.34 w=0.84 l=0.15
X17 DVDD.t220 a_1518_n346# a_1568_n552# DVDD.t219 sky130_fd_pr__pfet_01v8 ad=0.252 pd=2.28 as=0.21 ps=1.34 w=0.84 l=0.15
X18 cout.t1 a_1572_6# a_1568_n552# DVDD.t57 sky130_fd_pr__pfet_01v8 ad=0.21 pd=1.34 as=0.21 ps=1.34 w=0.84 l=0.15
X19 a_n138_n814# a_n494_n905# DVDD.t188 DVDD.t187 sky130_fd_pr__pfet_01v8 ad=0.21 pd=1.34 as=0.21 ps=1.34 w=0.84 l=0.15
X20 a_122_n1626# a_n462_n1511# s2.t2 DVDD.t43 sky130_fd_pr__pfet_01v8 ad=0.105 pd=0.92 as=0.105 ps=0.92 w=0.42 l=0.15
X21 a_1828_n3816# a5.t0 DVDD.t160 DVDD.t159 sky130_fd_pr__pfet_01v8 ad=0.21 pd=1.34 as=0.21 ps=1.34 w=0.84 l=0.15
X22 DVDD.t61 b8.t0 a_1980_6# DVDD.t60 sky130_fd_pr__pfet_01v8 ad=0.252 pd=2.28 as=0.252 ps=2.28 w=0.84 l=0.15
X23 cout.t3 a_1698_n1640# a_2388_n265# DGND.t41 sky130_fd_pr__nfet_01v8 ad=0.21 pd=1.34 as=0.21 ps=1.34 w=0.84 l=0.15
X24 a_n398_n2376# a_n462_n2599# DGND.t30 DGND.t7 sky130_fd_pr__nfet_01v8 ad=0.105 pd=0.92 as=0.126 ps=1.44 w=0.42 l=0.15
X25 DGND.t14 a5.t1 a_2388_n3529# DGND.t13 sky130_fd_pr__nfet_01v8 ad=0.21 pd=1.34 as=0.252 ps=2.28 w=0.84 l=0.15
X26 a_n398_n2990# a_n494_n3081# DVDD.t158 DVDD.t30 sky130_fd_pr__pfet_01v8 ad=0.21 pd=1.34 as=0.252 ps=2.28 w=0.84 l=0.15
X27 a_1828_n2728# a_1572_n2170# DVDD.t230 DVDD.t229 sky130_fd_pr__pfet_01v8 ad=0.21 pd=1.34 as=0.21 ps=1.34 w=0.84 l=0.15
X28 s8.t1 a_1698_n1640# a_2608_344# DVDD.t129 sky130_fd_pr__pfet_01v8 ad=0.105 pd=0.92 as=0.105 ps=0.92 w=0.42 l=0.15
X29 a_n398_n1288# a_n201_n1421# DGND.t157 DGND.t37 sky130_fd_pr__nfet_01v8 ad=0.105 pd=0.92 as=0.105 ps=0.92 w=0.42 l=0.15
X30 DGND.t50 a3.t0 a_n138_n2189# DGND.t49 sky130_fd_pr__nfet_01v8 ad=0.21 pd=1.34 as=0.21 ps=1.34 w=0.84 l=0.15
X31 DGND.t26 a_1518_n2522# a_2388_n2441# DGND.t25 sky130_fd_pr__nfet_01v8 ad=0.21 pd=1.34 as=0.252 ps=2.28 w=0.84 l=0.15
X32 a_n398_n3802# a_n462_n3687# DVDD.t107 DVDD.t106 sky130_fd_pr__pfet_01v8 ad=0.105 pd=0.92 as=0.126 ps=1.44 w=0.42 l=0.15
X33 DGND.t122 a_n354_n3081# a_n138_n3277# DGND.t121 sky130_fd_pr__nfet_01v8 ad=0.21 pd=1.34 as=0.21 ps=1.34 w=0.84 l=0.15
X34 a_1568_n2728# a_1572_n2170# a_1698_n2728# DVDD.t82 sky130_fd_pr__pfet_01v8 ad=0.21 pd=1.34 as=0.21 ps=1.34 w=0.84 l=0.15
X35 a_2868_6# cout.t7 s8.t2 DGND.t6 sky130_fd_pr__nfet_01v8 ad=0.105 pd=0.92 as=0.105 ps=0.92 w=0.42 l=0.15
X36 DGND.t136 a_1698_n3816# a_2868_n2170# DGND.t22 sky130_fd_pr__nfet_01v8 ad=0.126 pd=1.44 as=0.105 ps=0.92 w=0.42 l=0.15
X37 DGND.t85 b8.t1 a_1980_6# DGND.t84 sky130_fd_pr__nfet_01v8 ad=0.126 pd=1.44 as=0.126 ps=1.44 w=0.42 l=0.15
X38 a_n462_n3687# a_n462_n2599# a_n138_n1902# DVDD.t34 sky130_fd_pr__pfet_01v8 ad=0.21 pd=1.34 as=0.21 ps=1.34 w=0.84 l=0.15
X39 a_n398_n2714# a3.t1 DVDD.t134 DVDD.t103 sky130_fd_pr__pfet_01v8 ad=0.105 pd=0.92 as=0.105 ps=0.92 w=0.42 l=0.15
X40 DGND.t159 a_1698_n2728# a_2868_n1082# DGND.t111 sky130_fd_pr__nfet_01v8 ad=0.126 pd=1.44 as=0.105 ps=0.92 w=0.42 l=0.15
X41 a_1828_n3816# b5.t0 DVDD.t111 DVDD.t110 sky130_fd_pr__pfet_01v8 ad=0.21 pd=1.34 as=0.21 ps=1.34 w=0.84 l=0.15
X42 DVDD.t157 a_n494_n3081# a_n138_n2990# DVDD.t156 sky130_fd_pr__pfet_01v8 ad=0.21 pd=1.34 as=0.21 ps=1.34 w=0.84 l=0.15
X43 DVDD.t174 b8.t2 a_1572_6# DVDD.t173 sky130_fd_pr__pfet_01v8 ad=0.252 pd=2.28 as=0.252 ps=2.28 w=0.84 l=0.15
X44 a_252_n200# b1.t0 a_122_n200# DGND.t78 sky130_fd_pr__nfet_01v8 ad=0.105 pd=0.92 as=0.105 ps=0.92 w=0.42 l=0.15
X45 a_1698_n3816# a_n268_n3277# a_2388_n3529# DGND.t146 sky130_fd_pr__nfet_01v8 ad=0.21 pd=1.34 as=0.21 ps=1.34 w=0.84 l=0.15
X46 a_1568_n2728# a_1518_n2522# DVDD.t28 DVDD.t27 sky130_fd_pr__pfet_01v8 ad=0.21 pd=1.34 as=0.252 ps=2.28 w=0.84 l=0.15
X47 a_1828_n2728# a_1518_n2522# DVDD.t26 DVDD.t25 sky130_fd_pr__pfet_01v8 ad=0.21 pd=1.34 as=0.21 ps=1.34 w=0.84 l=0.15
X48 a_n138_n1902# a_n462_n2599# a_n462_n3687# DVDD.t33 sky130_fd_pr__pfet_01v8 ad=0.21 pd=1.34 as=0.21 ps=1.34 w=0.84 l=0.15
X49 a_1698_n2728# a_1698_n3816# a_2388_n2441# DGND.t69 sky130_fd_pr__nfet_01v8 ad=0.21 pd=1.34 as=0.21 ps=1.34 w=0.84 l=0.15
X50 s6.t0 a_1698_n3816# a_2608_n2170# DGND.t135 sky130_fd_pr__nfet_01v8 ad=0.105 pd=0.92 as=0.105 ps=0.92 w=0.42 l=0.15
X51 a_n268_n3277# a_n354_n3081# a_n398_n3277# DGND.t55 sky130_fd_pr__nfet_01v8 ad=0.21 pd=1.34 as=0.21 ps=1.34 w=0.84 l=0.15
X52 DGND.t42 a_2184_6# a_2868_6# DGND.t41 sky130_fd_pr__nfet_01v8 ad=0.105 pd=0.92 as=0.105 ps=0.92 w=0.42 l=0.15
X53 a_n398_n1101# a_n494_n905# DGND.t117 DGND.t34 sky130_fd_pr__nfet_01v8 ad=0.21 pd=1.34 as=0.252 ps=2.28 w=0.84 l=0.15
X54 s7.t2 a_1698_n2728# a_2608_n1082# DGND.t11 sky130_fd_pr__nfet_01v8 ad=0.105 pd=0.92 as=0.105 ps=0.92 w=0.42 l=0.15
X55 DVDD.t67 a8.t0 a_2184_6# DVDD.t66 sky130_fd_pr__pfet_01v8 ad=0.252 pd=2.28 as=0.252 ps=2.28 w=0.84 l=0.15
X56 a_122_n200# cin.t1 s1.t2 DGND.t109 sky130_fd_pr__nfet_01v8 ad=0.105 pd=0.92 as=0.105 ps=0.92 w=0.42 l=0.15
X57 a_1828_n552# a_1518_n346# DVDD.t218 DVDD.t217 sky130_fd_pr__pfet_01v8 ad=0.21 pd=1.34 as=0.21 ps=1.34 w=0.84 l=0.15
X58 s2.t0 a_n462_n2599# a_n398_n1288# DGND.t29 sky130_fd_pr__nfet_01v8 ad=0.105 pd=0.92 as=0.105 ps=0.92 w=0.42 l=0.15
X59 a_1568_n552# a_1518_n346# DVDD.t216 DVDD.t215 sky130_fd_pr__pfet_01v8 ad=0.21 pd=1.34 as=0.252 ps=2.28 w=0.84 l=0.15
X60 DVDD.t186 a_n494_n905# a_n138_n814# DVDD.t120 sky130_fd_pr__pfet_01v8 ad=0.21 pd=1.34 as=0.21 ps=1.34 w=0.84 l=0.15
X61 a_3128_n3529# b5.t1 a_1698_n3816# DGND.t83 sky130_fd_pr__nfet_01v8 ad=0.21 pd=1.34 as=0.21 ps=1.34 w=0.84 l=0.15
X62 a_2868_n2920# a_1698_n3816# s5.t1 DVDD.t224 sky130_fd_pr__pfet_01v8 ad=0.105 pd=0.92 as=0.105 ps=0.92 w=0.42 l=0.15
X63 a_2868_6# a_1980_6# DGND.t33 DGND.t32 sky130_fd_pr__nfet_01v8 ad=0.105 pd=0.92 as=0.105 ps=0.92 w=0.42 l=0.15
X64 a_2388_n265# a_1572_6# DGND.t45 DGND.t6 sky130_fd_pr__nfet_01v8 ad=0.21 pd=1.34 as=0.21 ps=1.34 w=0.84 l=0.15
X65 a_252_n1626# a_n331_n1509# a_122_n1626# DVDD.t132 sky130_fd_pr__pfet_01v8 ad=0.105 pd=0.92 as=0.105 ps=0.92 w=0.42 l=0.15
X66 a_1828_n1640# a_1698_n2728# a_1698_n1640# DVDD.t269 sky130_fd_pr__pfet_01v8 ad=0.21 pd=1.34 as=0.21 ps=1.34 w=0.84 l=0.15
X67 DGND.t151 b6.t0 a_1980_n2170# DGND.t150 sky130_fd_pr__nfet_01v8 ad=0.126 pd=1.44 as=0.126 ps=1.44 w=0.42 l=0.15
X68 a_3128_n2441# a_1572_n2170# a_1698_n2728# DGND.t20 sky130_fd_pr__nfet_01v8 ad=0.21 pd=1.34 as=0.21 ps=1.34 w=0.84 l=0.15
X69 a_n331_n3685# b4.t1 DGND.t145 DGND.t144 sky130_fd_pr__nfet_01v8 ad=0.126 pd=1.44 as=0.126 ps=1.44 w=0.42 l=0.15
X70 s3.t2 a_n462_n3687# a_n398_n2714# DVDD.t105 sky130_fd_pr__pfet_01v8 ad=0.105 pd=0.92 as=0.105 ps=0.92 w=0.42 l=0.15
X71 a_2868_n1832# a_1698_n2728# s6.t2 DVDD.t71 sky130_fd_pr__pfet_01v8 ad=0.105 pd=0.92 as=0.105 ps=0.92 w=0.42 l=0.15
X72 DGND.t63 a_n201_n3597# a_252_n3464# DGND.t62 sky130_fd_pr__nfet_01v8 ad=0.126 pd=1.44 as=0.105 ps=0.92 w=0.42 l=0.15
X73 a_n138_n3277# a_n354_n3081# DGND.t120 DGND.t74 sky130_fd_pr__nfet_01v8 ad=0.21 pd=1.34 as=0.21 ps=1.34 w=0.84 l=0.15
X74 DGND.t103 a8.t1 a_2184_6# DGND.t102 sky130_fd_pr__nfet_01v8 ad=0.126 pd=1.44 as=0.126 ps=1.44 w=0.42 l=0.15
X75 cout.t5 a_1698_n1640# a_1828_n552# DVDD.t128 sky130_fd_pr__pfet_01v8 ad=0.21 pd=1.34 as=0.21 ps=1.34 w=0.84 l=0.15
X76 DVDD.t91 a8.t2 a_1518_n346# DVDD.t90 sky130_fd_pr__pfet_01v8 ad=0.252 pd=2.28 as=0.252 ps=2.28 w=0.84 l=0.15
X77 a_n138_n814# a_n354_n905# DVDD.t259 DVDD.t258 sky130_fd_pr__pfet_01v8 ad=0.21 pd=1.34 as=0.21 ps=1.34 w=0.84 l=0.15
X78 DVDD.t79 a5.t2 a_1828_n3816# DVDD.t78 sky130_fd_pr__pfet_01v8 ad=0.21 pd=1.34 as=0.21 ps=1.34 w=0.84 l=0.15
X79 a_n138_n814# a_n354_n905# DVDD.t257 DVDD.t9 sky130_fd_pr__pfet_01v8 ad=0.21 pd=1.34 as=0.21 ps=1.34 w=0.84 l=0.15
X80 DVDD.t161 b3.t0 a_n138_n1902# DVDD.t29 sky130_fd_pr__pfet_01v8 ad=0.21 pd=1.34 as=0.21 ps=1.34 w=0.84 l=0.15
X81 a_2388_n3529# a5.t3 DGND.t94 DGND.t93 sky130_fd_pr__nfet_01v8 ad=0.21 pd=1.34 as=0.21 ps=1.34 w=0.84 l=0.15
X82 DVDD.t24 a_1518_n2522# a_1828_n2728# DVDD.t23 sky130_fd_pr__pfet_01v8 ad=0.21 pd=1.34 as=0.21 ps=1.34 w=0.84 l=0.15
X83 a_3128_n265# a_1572_6# cout.t2 DGND.t32 sky130_fd_pr__nfet_01v8 ad=0.21 pd=1.34 as=0.21 ps=1.34 w=0.84 l=0.15
X84 DGND.t124 a_n331_n1509# a_n398_n1288# DGND.t123 sky130_fd_pr__nfet_01v8 ad=0.105 pd=0.92 as=0.105 ps=0.92 w=0.42 l=0.15
X85 a_n494_n905# a2.t2 DGND.t53 DGND.t52 sky130_fd_pr__nfet_01v8 ad=0.126 pd=1.44 as=0.126 ps=1.44 w=0.42 l=0.15
X86 a_n138_n2189# a3.t2 DGND.t3 DGND.t2 sky130_fd_pr__nfet_01v8 ad=0.252 pd=2.28 as=0.21 ps=1.34 w=0.84 l=0.15
X87 a_2388_n2441# a_1518_n2522# DGND.t24 DGND.t19 sky130_fd_pr__nfet_01v8 ad=0.21 pd=1.34 as=0.21 ps=1.34 w=0.84 l=0.15
X88 a_n354_n3081# b4.t2 DGND.t65 DGND.t64 sky130_fd_pr__nfet_01v8 ad=0.126 pd=1.44 as=0.126 ps=1.44 w=0.42 l=0.15
X89 a_n398_n200# cin.t2 DGND.t155 DGND.t126 sky130_fd_pr__nfet_01v8 ad=0.105 pd=0.92 as=0.126 ps=1.44 w=0.42 l=0.15
X90 a_n201_n1421# a2.t3 DGND.t10 DGND.t9 sky130_fd_pr__nfet_01v8 ad=0.126 pd=1.44 as=0.126 ps=1.44 w=0.42 l=0.15
X91 a_2608_n744# b7.t1 a_2478_n744# DVDD.t211 sky130_fd_pr__pfet_01v8 ad=0.105 pd=0.92 as=0.105 ps=0.92 w=0.42 l=0.15
X92 a_n398_n1902# b3.t1 a_n462_n3687# DVDD.t0 sky130_fd_pr__pfet_01v8 ad=0.21 pd=1.34 as=0.21 ps=1.34 w=0.84 l=0.15
X93 DVDD.t145 b3.t2 a_n398_n2714# DVDD.t144 sky130_fd_pr__pfet_01v8 ad=0.105 pd=0.92 as=0.105 ps=0.92 w=0.42 l=0.15
X94 DVDD.t119 b5.t2 a_1828_n3816# DVDD.t118 sky130_fd_pr__pfet_01v8 ad=0.21 pd=1.34 as=0.21 ps=1.34 w=0.84 l=0.15
X95 a_1698_n3816# a_n268_n3277# a_1828_n3816# DVDD.t267 sky130_fd_pr__pfet_01v8 ad=0.21 pd=1.34 as=0.21 ps=1.34 w=0.84 l=0.15
X96 a_1698_n2728# a_1572_n2170# a_1568_n2728# DVDD.t228 sky130_fd_pr__pfet_01v8 ad=0.21 pd=1.34 as=0.21 ps=1.34 w=0.84 l=0.15
X97 a_122_n1288# a_n462_n1511# s2.t3 DGND.t38 sky130_fd_pr__nfet_01v8 ad=0.105 pd=0.92 as=0.105 ps=0.92 w=0.42 l=0.15
X98 DVDD.t6 a7.t0 a_1568_n1640# DVDD.t5 sky130_fd_pr__pfet_01v8 ad=0.252 pd=2.28 as=0.21 ps=1.34 w=0.84 l=0.15
X99 a_n462_n3687# b3.t3 a_n398_n1902# DVDD.t172 sky130_fd_pr__pfet_01v8 ad=0.21 pd=1.34 as=0.21 ps=1.34 w=0.84 l=0.15
X100 a_2478_n2920# a5.t4 DVDD.t73 DVDD.t17 sky130_fd_pr__pfet_01v8 ad=0.105 pd=0.92 as=0.126 ps=1.44 w=0.42 l=0.15
X101 a_n398_n814# a_n494_n905# DVDD.t185 DVDD.t142 sky130_fd_pr__pfet_01v8 ad=0.21 pd=1.34 as=0.252 ps=2.28 w=0.84 l=0.15
X102 DGND.t73 b6.t1 a_1572_n2170# DGND.t72 sky130_fd_pr__nfet_01v8 ad=0.126 pd=1.44 as=0.126 ps=1.44 w=0.42 l=0.15
X103 a_2868_n2170# a_1698_n2728# s6.t3 DGND.t137 sky130_fd_pr__nfet_01v8 ad=0.105 pd=0.92 as=0.105 ps=0.92 w=0.42 l=0.15
X104 a_n268_n3277# a_n462_n3687# a_n138_n2990# DVDD.t104 sky130_fd_pr__pfet_01v8 ad=0.21 pd=1.34 as=0.21 ps=1.34 w=0.84 l=0.15
X105 a_122_n2714# a_n462_n2599# s3.t1 DVDD.t32 sky130_fd_pr__pfet_01v8 ad=0.105 pd=0.92 as=0.105 ps=0.92 w=0.42 l=0.15
X106 a_2478_n1832# a_2184_n2170# DVDD.t100 DVDD.t96 sky130_fd_pr__pfet_01v8 ad=0.105 pd=0.92 as=0.126 ps=1.44 w=0.42 l=0.15
X107 a_2478_6# a_2184_6# DGND.t40 DGND.t39 sky130_fd_pr__nfet_01v8 ad=0.105 pd=0.92 as=0.126 ps=1.44 w=0.42 l=0.15
X108 DGND.t44 a_1572_6# a_2388_n265# DGND.t43 sky130_fd_pr__nfet_01v8 ad=0.21 pd=1.34 as=0.21 ps=1.34 w=0.84 l=0.15
X109 a_2868_n1082# a_1698_n1640# s7.t0 DGND.t0 sky130_fd_pr__nfet_01v8 ad=0.105 pd=0.92 as=0.105 ps=0.92 w=0.42 l=0.15
X110 a_n398_n3464# a_n462_n3687# DGND.t76 DGND.t75 sky130_fd_pr__nfet_01v8 ad=0.105 pd=0.92 as=0.126 ps=1.44 w=0.42 l=0.15
X111 a_1828_n3816# b5.t3 DVDD.t236 DVDD.t235 sky130_fd_pr__pfet_01v8 ad=0.21 pd=1.34 as=0.21 ps=1.34 w=0.84 l=0.15
X112 a_1568_n3816# b5.t4 a_1698_n3816# DVDD.t141 sky130_fd_pr__pfet_01v8 ad=0.21 pd=1.34 as=0.21 ps=1.34 w=0.84 l=0.15
X113 DGND.t101 a_n494_n3081# a_n138_n3277# DGND.t57 sky130_fd_pr__nfet_01v8 ad=0.21 pd=1.34 as=0.21 ps=1.34 w=0.84 l=0.15
X114 a_n138_n13# a1.t1 DGND.t130 DGND.t129 sky130_fd_pr__nfet_01v8 ad=0.252 pd=2.28 as=0.21 ps=1.34 w=0.84 l=0.15
X115 a_1828_n552# a_1572_6# DVDD.t56 DVDD.t55 sky130_fd_pr__pfet_01v8 ad=0.21 pd=1.34 as=0.21 ps=1.34 w=0.84 l=0.15
X116 DVDD.t4 b7.t2 a_1828_n1640# DVDD.t3 sky130_fd_pr__pfet_01v8 ad=0.21 pd=1.34 as=0.21 ps=1.34 w=0.84 l=0.15
X117 a_n398_n2376# a3.t3 DGND.t51 DGND.t27 sky130_fd_pr__nfet_01v8 ad=0.105 pd=0.92 as=0.105 ps=0.92 w=0.42 l=0.15
X118 a_n138_n2990# a_n462_n3687# a_n268_n3277# DVDD.t103 sky130_fd_pr__pfet_01v8 ad=0.21 pd=1.34 as=0.21 ps=1.34 w=0.84 l=0.15
X119 DVDD.t256 a_n354_n905# a_n138_n814# DVDD.t255 sky130_fd_pr__pfet_01v8 ad=0.21 pd=1.34 as=0.21 ps=1.34 w=0.84 l=0.15
X120 a_n331_n1509# b2.t0 DVDD.t59 DVDD.t58 sky130_fd_pr__pfet_01v8 ad=0.252 pd=2.28 as=0.252 ps=2.28 w=0.84 l=0.15
X121 a_n138_n1902# b3.t4 DVDD.t170 DVDD.t43 sky130_fd_pr__pfet_01v8 ad=0.21 pd=1.34 as=0.21 ps=1.34 w=0.84 l=0.15
X122 DVDD.t242 a6.t0 a_2184_n2170# DVDD.t241 sky130_fd_pr__pfet_01v8 ad=0.252 pd=2.28 as=0.252 ps=2.28 w=0.84 l=0.15
X123 DGND.t158 a_n268_n3277# a_2868_n3258# DGND.t66 sky130_fd_pr__nfet_01v8 ad=0.126 pd=1.44 as=0.105 ps=0.92 w=0.42 l=0.15
X124 DVDD.t136 a5.t5 a_2868_n2920# DVDD.t135 sky130_fd_pr__pfet_01v8 ad=0.105 pd=0.92 as=0.105 ps=0.92 w=0.42 l=0.15
X125 DVDD.t263 a_n201_n1421# a_252_n1626# DVDD.t247 sky130_fd_pr__pfet_01v8 ad=0.126 pd=1.44 as=0.105 ps=0.92 w=0.42 l=0.15
X126 a_n398_n3802# a_n201_n3597# DVDD.t89 DVDD.t88 sky130_fd_pr__pfet_01v8 ad=0.105 pd=0.92 as=0.105 ps=0.92 w=0.42 l=0.15
X127 DVDD.t65 b1.t1 a_n398_n538# DVDD.t64 sky130_fd_pr__pfet_01v8 ad=0.105 pd=0.92 as=0.105 ps=0.92 w=0.42 l=0.15
X128 DVDD.t99 a_2184_n2170# a_2868_n1832# DVDD.t98 sky130_fd_pr__pfet_01v8 ad=0.105 pd=0.92 as=0.105 ps=0.92 w=0.42 l=0.15
X129 a_n398_n2189# a3.t4 DGND.t8 DGND.t7 sky130_fd_pr__nfet_01v8 ad=0.21 pd=1.34 as=0.252 ps=2.28 w=0.84 l=0.15
X130 DVDD.t210 a1.t2 a_n138_274# DVDD.t209 sky130_fd_pr__pfet_01v8 ad=0.21 pd=1.34 as=0.21 ps=1.34 w=0.84 l=0.15
X131 DVDD.t268 a_1698_n2728# a_2868_n744# DVDD.t219 sky130_fd_pr__pfet_01v8 ad=0.126 pd=1.44 as=0.105 ps=0.92 w=0.42 l=0.15
X132 a_n138_n1902# a3.t5 DVDD.t14 DVDD.t13 sky130_fd_pr__pfet_01v8 ad=0.21 pd=1.34 as=0.21 ps=1.34 w=0.84 l=0.15
X133 a_1568_n3816# a5.t6 DVDD.t246 DVDD.t245 sky130_fd_pr__pfet_01v8 ad=0.21 pd=1.34 as=0.252 ps=2.28 w=0.84 l=0.15
X134 a_2478_n744# a7.t1 DVDD.t2 DVDD.t1 sky130_fd_pr__pfet_01v8 ad=0.105 pd=0.92 as=0.126 ps=1.44 w=0.42 l=0.15
X135 a_1828_n3816# a5.t7 DVDD.t261 DVDD.t260 sky130_fd_pr__pfet_01v8 ad=0.21 pd=1.34 as=0.21 ps=1.34 w=0.84 l=0.15
X136 a_2608_6# a_1980_6# a_2478_6# DGND.t31 sky130_fd_pr__nfet_01v8 ad=0.105 pd=0.92 as=0.105 ps=0.92 w=0.42 l=0.15
X137 a_n354_n905# b2.t1 DVDD.t166 DVDD.t165 sky130_fd_pr__pfet_01v8 ad=0.252 pd=2.28 as=0.252 ps=2.28 w=0.84 l=0.15
X138 DGND.t128 a1.t3 a_n138_n13# DGND.t78 sky130_fd_pr__nfet_01v8 ad=0.21 pd=1.34 as=0.21 ps=1.34 w=0.84 l=0.15
X139 a_1568_n552# a_1572_6# cout.t0 DVDD.t54 sky130_fd_pr__pfet_01v8 ad=0.21 pd=1.34 as=0.21 ps=1.34 w=0.84 l=0.15
X140 s5.t2 a_n268_n3277# a_2608_n3258# DGND.t148 sky130_fd_pr__nfet_01v8 ad=0.105 pd=0.92 as=0.105 ps=0.92 w=0.42 l=0.15
X141 DGND.t112 a7.t2 a_3128_n1353# DGND.t111 sky130_fd_pr__nfet_01v8 ad=0.252 pd=2.28 as=0.21 ps=1.34 w=0.84 l=0.15
X142 a_2478_n2170# a_2184_n2170# DGND.t71 DGND.t25 sky130_fd_pr__nfet_01v8 ad=0.105 pd=0.92 as=0.126 ps=1.44 w=0.42 l=0.15
X143 a_2868_n2920# b5.t5 DVDD.t83 DVDD.t82 sky130_fd_pr__pfet_01v8 ad=0.105 pd=0.92 as=0.105 ps=0.92 w=0.42 l=0.15
X144 a_n138_274# b1.t2 DVDD.t140 DVDD.t139 sky130_fd_pr__pfet_01v8 ad=0.21 pd=1.34 as=0.21 ps=1.34 w=0.84 l=0.15
X145 a_2478_n1082# a7.t3 DGND.t105 DGND.t4 sky130_fd_pr__nfet_01v8 ad=0.105 pd=0.92 as=0.126 ps=1.44 w=0.42 l=0.15
X146 DVDD.t81 a3.t6 a_n398_n1902# DVDD.t80 sky130_fd_pr__pfet_01v8 ad=0.252 pd=2.28 as=0.21 ps=1.34 w=0.84 l=0.15
X147 a_2868_n1832# a_1980_n2170# DVDD.t16 DVDD.t10 sky130_fd_pr__pfet_01v8 ad=0.105 pd=0.92 as=0.105 ps=0.92 w=0.42 l=0.15
X148 a_n138_274# a1.t4 DVDD.t208 DVDD.t207 sky130_fd_pr__pfet_01v8 ad=0.21 pd=1.34 as=0.21 ps=1.34 w=0.84 l=0.15
X149 a_n138_n1101# a_n462_n1511# a_n462_n2599# DGND.t37 sky130_fd_pr__nfet_01v8 ad=0.21 pd=1.34 as=0.21 ps=1.34 w=0.84 l=0.15
X150 a_252_n1288# a_n331_n1509# a_122_n1288# DGND.t115 sky130_fd_pr__nfet_01v8 ad=0.105 pd=0.92 as=0.105 ps=0.92 w=0.42 l=0.15
X151 s3.t3 a_n462_n3687# a_n398_n2376# DGND.t58 sky130_fd_pr__nfet_01v8 ad=0.105 pd=0.92 as=0.105 ps=0.92 w=0.42 l=0.15
X152 DVDD.t193 a_n354_n3081# a_n138_n2990# DVDD.t105 sky130_fd_pr__pfet_01v8 ad=0.21 pd=1.34 as=0.21 ps=1.34 w=0.84 l=0.15
X153 a_1828_n1640# a7.t4 DVDD.t149 DVDD.t148 sky130_fd_pr__pfet_01v8 ad=0.21 pd=1.34 as=0.21 ps=1.34 w=0.84 l=0.15
X154 s4.t2 a_n268_n3277# a_n398_n3802# DVDD.t266 sky130_fd_pr__pfet_01v8 ad=0.105 pd=0.92 as=0.105 ps=0.92 w=0.42 l=0.15
X155 a_1828_n2728# a_1698_n3816# a_1698_n2728# DVDD.t223 sky130_fd_pr__pfet_01v8 ad=0.21 pd=1.34 as=0.21 ps=1.34 w=0.84 l=0.15
X156 a_252_n2714# b3.t5 a_122_n2714# DVDD.t124 sky130_fd_pr__pfet_01v8 ad=0.105 pd=0.92 as=0.105 ps=0.92 w=0.42 l=0.15
X157 DGND.t12 b7.t3 a_2388_n1353# DGND.t11 sky130_fd_pr__nfet_01v8 ad=0.21 pd=1.34 as=0.21 ps=1.34 w=0.84 l=0.15
X158 s1.t1 a_n462_n1511# a_n398_n538# DVDD.t42 sky130_fd_pr__pfet_01v8 ad=0.105 pd=0.92 as=0.105 ps=0.92 w=0.42 l=0.15
X159 DVDD.t238 a6.t1 a_1518_n2522# DVDD.t237 sky130_fd_pr__pfet_01v8 ad=0.252 pd=2.28 as=0.252 ps=2.28 w=0.84 l=0.15
X160 a_2608_n2920# b5.t6 a_2478_n2920# DVDD.t25 sky130_fd_pr__pfet_01v8 ad=0.105 pd=0.92 as=0.105 ps=0.92 w=0.42 l=0.15
X161 DVDD.t53 a_1572_6# a_1828_n552# DVDD.t52 sky130_fd_pr__pfet_01v8 ad=0.21 pd=1.34 as=0.21 ps=1.34 w=0.84 l=0.15
X162 DGND.t70 a_2184_n2170# a_2868_n2170# DGND.t69 sky130_fd_pr__nfet_01v8 ad=0.105 pd=0.92 as=0.105 ps=0.92 w=0.42 l=0.15
X163 a_n398_n2990# a_n354_n3081# a_n268_n3277# DVDD.t192 sky130_fd_pr__pfet_01v8 ad=0.21 pd=1.34 as=0.21 ps=1.34 w=0.84 l=0.15
X164 DVDD.t51 a_1572_6# a_1828_n552# DVDD.t50 sky130_fd_pr__pfet_01v8 ad=0.21 pd=1.34 as=0.21 ps=1.34 w=0.84 l=0.15
X165 a_n138_n814# a_n494_n905# DVDD.t184 DVDD.t183 sky130_fd_pr__pfet_01v8 ad=0.21 pd=1.34 as=0.21 ps=1.34 w=0.84 l=0.15
X166 a_n398_n1626# a_n462_n1511# DVDD.t41 DVDD.t40 sky130_fd_pr__pfet_01v8 ad=0.105 pd=0.92 as=0.126 ps=1.44 w=0.42 l=0.15
X167 a_2608_n1832# a_1980_n2170# a_2478_n1832# DVDD.t15 sky130_fd_pr__pfet_01v8 ad=0.105 pd=0.92 as=0.105 ps=0.92 w=0.42 l=0.15
X168 DVDD.t164 b1.t3 a_n138_274# DVDD.t163 sky130_fd_pr__pfet_01v8 ad=0.21 pd=1.34 as=0.21 ps=1.34 w=0.84 l=0.15
X169 DGND.t114 a7.t5 a_2868_n1082# DGND.t113 sky130_fd_pr__nfet_01v8 ad=0.105 pd=0.92 as=0.105 ps=0.92 w=0.42 l=0.15
X170 DVDD.t206 a1.t5 a_n138_274# DVDD.t205 sky130_fd_pr__pfet_01v8 ad=0.21 pd=1.34 as=0.21 ps=1.34 w=0.84 l=0.15
X171 a_n398_n538# a1.t6 DVDD.t204 DVDD.t38 sky130_fd_pr__pfet_01v8 ad=0.105 pd=0.92 as=0.105 ps=0.92 w=0.42 l=0.15
X172 DVDD.t133 a3.t7 a_n138_n1902# DVDD.t132 sky130_fd_pr__pfet_01v8 ad=0.21 pd=1.34 as=0.21 ps=1.34 w=0.84 l=0.15
X173 DVDD.t182 a_n494_n905# a_n398_n814# DVDD.t181 sky130_fd_pr__pfet_01v8 ad=0.252 pd=2.28 as=0.21 ps=1.34 w=0.84 l=0.15
X174 DVDD.t131 a5.t8 a_1828_n3816# DVDD.t130 sky130_fd_pr__pfet_01v8 ad=0.21 pd=1.34 as=0.21 ps=1.34 w=0.84 l=0.15
X175 a_n138_n3277# a_n494_n3081# DGND.t100 DGND.t62 sky130_fd_pr__nfet_01v8 ad=0.252 pd=2.28 as=0.21 ps=1.34 w=0.84 l=0.15
X176 a_1828_n1640# b7.t4 DVDD.t72 DVDD.t71 sky130_fd_pr__pfet_01v8 ad=0.21 pd=1.34 as=0.21 ps=1.34 w=0.84 l=0.15
X177 DGND.t68 b3.t6 a_n398_n2376# DGND.t54 sky130_fd_pr__nfet_01v8 ad=0.105 pd=0.92 as=0.105 ps=0.92 w=0.42 l=0.15
X178 a_n268_n3277# a_n354_n3081# a_n398_n2990# DVDD.t144 sky130_fd_pr__pfet_01v8 ad=0.21 pd=1.34 as=0.21 ps=1.34 w=0.84 l=0.15
X179 DGND.t77 b1.t4 a_n138_n13# DGND.t36 sky130_fd_pr__nfet_01v8 ad=0.21 pd=1.34 as=0.21 ps=1.34 w=0.84 l=0.15
X180 a_n494_n3081# a4.t0 DVDD.t178 DVDD.t177 sky130_fd_pr__pfet_01v8 ad=0.252 pd=2.28 as=0.252 ps=2.28 w=0.84 l=0.15
X181 DVDD.t77 a_n331_n3685# a_n398_n3802# DVDD.t76 sky130_fd_pr__pfet_01v8 ad=0.105 pd=0.92 as=0.105 ps=0.92 w=0.42 l=0.15
X182 DVDD.t214 a_1518_n346# a_1828_n552# DVDD.t213 sky130_fd_pr__pfet_01v8 ad=0.21 pd=1.34 as=0.21 ps=1.34 w=0.84 l=0.15
X183 DGND.t154 a_n354_n905# a_n138_n1101# DGND.t29 sky130_fd_pr__nfet_01v8 ad=0.21 pd=1.34 as=0.21 ps=1.34 w=0.84 l=0.15
X184 a_n201_n3597# a4.t1 DVDD.t176 DVDD.t175 sky130_fd_pr__pfet_01v8 ad=0.252 pd=2.28 as=0.252 ps=2.28 w=0.84 l=0.15
X185 a_2868_n2170# a_1980_n2170# DGND.t21 DGND.t20 sky130_fd_pr__nfet_01v8 ad=0.105 pd=0.92 as=0.105 ps=0.92 w=0.42 l=0.15
X186 a_2868_n1082# b7.t5 DGND.t96 DGND.t95 sky130_fd_pr__nfet_01v8 ad=0.105 pd=0.92 as=0.105 ps=0.92 w=0.42 l=0.15
X187 DVDD.t252 b3.t7 a_n138_n1902# DVDD.t251 sky130_fd_pr__pfet_01v8 ad=0.21 pd=1.34 as=0.21 ps=1.34 w=0.84 l=0.15
X188 a_1698_n3816# b5.t7 a_1568_n3816# DVDD.t74 sky130_fd_pr__pfet_01v8 ad=0.21 pd=1.34 as=0.21 ps=1.34 w=0.84 l=0.15
X189 a_n138_274# a1.t7 DVDD.t203 DVDD.t202 sky130_fd_pr__pfet_01v8 ad=0.21 pd=1.34 as=0.21 ps=1.34 w=0.84 l=0.15
X190 DVDD.t171 a7.t6 a_2868_n744# DVDD.t128 sky130_fd_pr__pfet_01v8 ad=0.105 pd=0.92 as=0.105 ps=0.92 w=0.42 l=0.15
X191 a_122_n2376# a_n462_n2599# s3.t0 DGND.t28 sky130_fd_pr__nfet_01v8 ad=0.105 pd=0.92 as=0.105 ps=0.92 w=0.42 l=0.15
X192 DVDD.t22 a_1518_n2522# a_1568_n2728# DVDD.t21 sky130_fd_pr__pfet_01v8 ad=0.252 pd=2.28 as=0.21 ps=1.34 w=0.84 l=0.15
X193 DVDD.t201 a1.t8 a_n398_274# DVDD.t200 sky130_fd_pr__pfet_01v8 ad=0.252 pd=2.28 as=0.21 ps=1.34 w=0.84 l=0.15
X194 a_n462_n1511# b1.t5 a_n398_n13# DGND.t48 sky130_fd_pr__nfet_01v8 ad=0.21 pd=1.34 as=0.21 ps=1.34 w=0.84 l=0.15
X195 a_n138_n13# b1.t6 DGND.t110 DGND.t109 sky130_fd_pr__nfet_01v8 ad=0.21 pd=1.34 as=0.21 ps=1.34 w=0.84 l=0.15
X196 a_n138_n2990# a_n354_n3081# DVDD.t191 DVDD.t32 sky130_fd_pr__pfet_01v8 ad=0.21 pd=1.34 as=0.21 ps=1.34 w=0.84 l=0.15
X197 a_2868_n3258# a_1698_n3816# s5.t0 DGND.t81 sky130_fd_pr__nfet_01v8 ad=0.105 pd=0.92 as=0.105 ps=0.92 w=0.42 l=0.15
X198 a_122_n3802# a_n462_n3687# s4.t0 DVDD.t102 sky130_fd_pr__pfet_01v8 ad=0.105 pd=0.92 as=0.105 ps=0.92 w=0.42 l=0.15
X199 a_2608_n2170# a_1980_n2170# a_2478_n2170# DGND.t19 sky130_fd_pr__nfet_01v8 ad=0.105 pd=0.92 as=0.105 ps=0.92 w=0.42 l=0.15
X200 a_2868_344# a_1980_6# DVDD.t37 DVDD.t36 sky130_fd_pr__pfet_01v8 ad=0.105 pd=0.92 as=0.105 ps=0.92 w=0.42 l=0.15
X201 a_n138_n2990# a_n494_n3081# DVDD.t155 DVDD.t154 sky130_fd_pr__pfet_01v8 ad=0.21 pd=1.34 as=0.21 ps=1.34 w=0.84 l=0.15
X202 a_2608_n1082# b7.t6 a_2478_n1082# DGND.t92 sky130_fd_pr__nfet_01v8 ad=0.105 pd=0.92 as=0.105 ps=0.92 w=0.42 l=0.15
X203 a_n331_n1509# b2.t2 DGND.t16 DGND.t15 sky130_fd_pr__nfet_01v8 ad=0.126 pd=1.44 as=0.126 ps=1.44 w=0.42 l=0.15
X204 a_n462_n2599# a_n354_n905# a_n398_n1101# DGND.t123 sky130_fd_pr__nfet_01v8 ad=0.21 pd=1.34 as=0.21 ps=1.34 w=0.84 l=0.15
X205 DGND.t156 a_n201_n1421# a_252_n1288# DGND.t118 sky130_fd_pr__nfet_01v8 ad=0.126 pd=1.44 as=0.105 ps=0.92 w=0.42 l=0.15
X206 a_n398_n3464# a_n201_n3597# DGND.t61 DGND.t60 sky130_fd_pr__nfet_01v8 ad=0.105 pd=0.92 as=0.105 ps=0.92 w=0.42 l=0.15
X207 DVDD.t227 a_1572_n2170# a_1828_n2728# DVDD.t226 sky130_fd_pr__pfet_01v8 ad=0.21 pd=1.34 as=0.21 ps=1.34 w=0.84 l=0.15
X208 DGND.t88 b1.t7 a_n398_n200# DGND.t48 sky130_fd_pr__nfet_01v8 ad=0.105 pd=0.92 as=0.105 ps=0.92 w=0.42 l=0.15
X209 DVDD.t250 b1.t8 a_n138_274# DVDD.t249 sky130_fd_pr__pfet_01v8 ad=0.21 pd=1.34 as=0.21 ps=1.34 w=0.84 l=0.15
X210 a_n138_n13# cin.t3 a_n462_n1511# DGND.t91 sky130_fd_pr__nfet_01v8 ad=0.21 pd=1.34 as=0.21 ps=1.34 w=0.84 l=0.15
X211 DVDD.t97 a7.t7 a_1828_n1640# DVDD.t96 sky130_fd_pr__pfet_01v8 ad=0.21 pd=1.34 as=0.21 ps=1.34 w=0.84 l=0.15
X212 DVDD.t93 a3.t8 a_252_n2714# DVDD.t92 sky130_fd_pr__pfet_01v8 ad=0.126 pd=1.44 as=0.105 ps=0.92 w=0.42 l=0.15
X213 a_n398_274# b1.t9 a_n462_n1511# DVDD.t101 sky130_fd_pr__pfet_01v8 ad=0.21 pd=1.34 as=0.21 ps=1.34 w=0.84 l=0.15
X214 a_2388_n1353# b7.t7 DGND.t1 DGND.t0 sky130_fd_pr__nfet_01v8 ad=0.21 pd=1.34 as=0.21 ps=1.34 w=0.84 l=0.15
X215 a_n398_n3277# a_n494_n3081# DGND.t99 DGND.t75 sky130_fd_pr__nfet_01v8 ad=0.21 pd=1.34 as=0.252 ps=2.28 w=0.84 l=0.15
X216 a_n398_n814# a_n354_n905# a_n462_n2599# DVDD.t254 sky130_fd_pr__pfet_01v8 ad=0.21 pd=1.34 as=0.21 ps=1.34 w=0.84 l=0.15
X217 DVDD.t153 a_n494_n3081# a_n398_n2990# DVDD.t152 sky130_fd_pr__pfet_01v8 ad=0.252 pd=2.28 as=0.21 ps=1.34 w=0.84 l=0.15
X218 a_n462_n1511# b1.t10 a_n398_274# DVDD.t112 sky130_fd_pr__pfet_01v8 ad=0.21 pd=1.34 as=0.21 ps=1.34 w=0.84 l=0.15
X219 a_n354_n905# b2.t3 DGND.t107 DGND.t106 sky130_fd_pr__nfet_01v8 ad=0.126 pd=1.44 as=0.126 ps=1.44 w=0.42 l=0.15
X220 a_n138_n2189# a_n462_n2599# a_n462_n3687# DGND.t27 sky130_fd_pr__nfet_01v8 ad=0.21 pd=1.34 as=0.21 ps=1.34 w=0.84 l=0.15
X221 a_n138_274# b1.t11 DVDD.t114 DVDD.t113 sky130_fd_pr__pfet_01v8 ad=0.21 pd=1.34 as=0.21 ps=1.34 w=0.84 l=0.15
X222 a_n138_n1101# a_n354_n905# DGND.t153 DGND.t38 sky130_fd_pr__nfet_01v8 ad=0.21 pd=1.34 as=0.21 ps=1.34 w=0.84 l=0.15
X223 a_1828_n552# a_1572_6# DVDD.t49 DVDD.t48 sky130_fd_pr__pfet_01v8 ad=0.21 pd=1.34 as=0.21 ps=1.34 w=0.84 l=0.15
X224 a_n138_n1902# a3.t9 DVDD.t248 DVDD.t247 sky130_fd_pr__pfet_01v8 ad=0.21 pd=1.34 as=0.21 ps=1.34 w=0.84 l=0.15
X225 DGND.t67 a5.t9 a_3128_n3529# DGND.t66 sky130_fd_pr__nfet_01v8 ad=0.252 pd=2.28 as=0.21 ps=1.34 w=0.84 l=0.15
X226 DVDD.t199 a1.t9 a_252_n538# DVDD.t187 sky130_fd_pr__pfet_01v8 ad=0.126 pd=1.44 as=0.105 ps=0.92 w=0.42 l=0.15
X227 DVDD.t169 b7.t8 a_1828_n1640# DVDD.t168 sky130_fd_pr__pfet_01v8 ad=0.21 pd=1.34 as=0.21 ps=1.34 w=0.84 l=0.15
X228 a_n462_n2599# a_n354_n905# a_n398_n814# DVDD.t64 sky130_fd_pr__pfet_01v8 ad=0.21 pd=1.34 as=0.21 ps=1.34 w=0.84 l=0.15
X229 a_1698_n1640# a_1698_n2728# a_1828_n1640# DVDD.t98 sky130_fd_pr__pfet_01v8 ad=0.21 pd=1.34 as=0.21 ps=1.34 w=0.84 l=0.15
X230 DGND.t23 a_1518_n2522# a_3128_n2441# DGND.t22 sky130_fd_pr__nfet_01v8 ad=0.252 pd=2.28 as=0.21 ps=1.34 w=0.84 l=0.15
X231 a_n462_n1511# cin.t4 a_n138_274# DVDD.t123 sky130_fd_pr__pfet_01v8 ad=0.21 pd=1.34 as=0.21 ps=1.34 w=0.84 l=0.15
X232 a_2388_n265# a_1518_n346# DGND.t134 DGND.t31 sky130_fd_pr__nfet_01v8 ad=0.21 pd=1.34 as=0.21 ps=1.34 w=0.84 l=0.15
X233 a_2868_n744# a_1698_n1640# s7.t1 DVDD.t55 sky130_fd_pr__pfet_01v8 ad=0.105 pd=0.92 as=0.105 ps=0.92 w=0.42 l=0.15
X234 a_2478_n3258# a5.t10 DGND.t86 DGND.t13 sky130_fd_pr__nfet_01v8 ad=0.105 pd=0.92 as=0.126 ps=1.44 w=0.42 l=0.15
X235 a_252_n2376# b3.t8 a_122_n2376# DGND.t49 sky130_fd_pr__nfet_01v8 ad=0.105 pd=0.92 as=0.105 ps=0.92 w=0.42 l=0.15
X236 s4.t3 a_n268_n3277# a_n398_n3464# DGND.t121 sky130_fd_pr__nfet_01v8 ad=0.105 pd=0.92 as=0.105 ps=0.92 w=0.42 l=0.15
X237 DVDD.t240 b6.t2 a_1980_n2170# DVDD.t239 sky130_fd_pr__pfet_01v8 ad=0.252 pd=2.28 as=0.252 ps=2.28 w=0.84 l=0.15
X238 DVDD.t151 a_n494_n3081# a_n138_n2990# DVDD.t124 sky130_fd_pr__pfet_01v8 ad=0.21 pd=1.34 as=0.21 ps=1.34 w=0.84 l=0.15
X239 a_n138_274# cin.t5 a_n462_n1511# DVDD.t70 sky130_fd_pr__pfet_01v8 ad=0.21 pd=1.34 as=0.21 ps=1.34 w=0.84 l=0.15
X240 s1.t0 a_n462_n1511# a_n398_n200# DGND.t36 sky130_fd_pr__nfet_01v8 ad=0.105 pd=0.92 as=0.105 ps=0.92 w=0.42 l=0.15
X241 a_n138_n1902# b3.t9 DVDD.t122 DVDD.t121 sky130_fd_pr__pfet_01v8 ad=0.21 pd=1.34 as=0.21 ps=1.34 w=0.84 l=0.15
X242 a_1828_n3816# a_n268_n3277# a_1698_n3816# DVDD.t265 sky130_fd_pr__pfet_01v8 ad=0.21 pd=1.34 as=0.21 ps=1.34 w=0.84 l=0.15
X243 a_252_n3802# a_n331_n3685# a_122_n3802# DVDD.t75 sky130_fd_pr__pfet_01v8 ad=0.105 pd=0.92 as=0.105 ps=0.92 w=0.42 l=0.15
X244 DGND.t149 b5.t8 a_2388_n3529# DGND.t148 sky130_fd_pr__nfet_01v8 ad=0.21 pd=1.34 as=0.21 ps=1.34 w=0.84 l=0.15
X245 a_1828_n2728# a_1518_n2522# DVDD.t20 DVDD.t19 sky130_fd_pr__pfet_01v8 ad=0.21 pd=1.34 as=0.21 ps=1.34 w=0.84 l=0.15
X246 a_n398_n1288# a_n462_n1511# DGND.t35 DGND.t34 sky130_fd_pr__nfet_01v8 ad=0.105 pd=0.92 as=0.126 ps=1.44 w=0.42 l=0.15
X247 DGND.t139 a_1572_n2170# a_2388_n2441# DGND.t135 sky130_fd_pr__nfet_01v8 ad=0.21 pd=1.34 as=0.21 ps=1.34 w=0.84 l=0.15
X248 a_n398_n13# a1.t10 DGND.t127 DGND.t126 sky130_fd_pr__nfet_01v8 ad=0.21 pd=1.34 as=0.252 ps=2.28 w=0.84 l=0.15
X249 a_1828_n1640# b7.t9 DVDD.t138 DVDD.t137 sky130_fd_pr__pfet_01v8 ad=0.21 pd=1.34 as=0.21 ps=1.34 w=0.84 l=0.15
X250 DGND.t147 a5.t11 a_2868_n3258# DGND.t146 sky130_fd_pr__nfet_01v8 ad=0.105 pd=0.92 as=0.105 ps=0.92 w=0.42 l=0.15
X251 a_n398_n200# a1.t11 DGND.t125 DGND.t91 sky130_fd_pr__nfet_01v8 ad=0.105 pd=0.92 as=0.105 ps=0.92 w=0.42 l=0.15