*SPEF "ieee 1481-1999"
*DESIGN "adder"
*DATE "08:19:30 Friday April 18, 2025"
*VENDOR "The OpenROAD Project"
*PROGRAM "OpenROAD"
*VERSION "b16bda7e82721d10566ff7e2b68f1ff0be9f9e38"
*DESIGN_FLOW "NAME_SCOPE LOCAL" "PIN_CAP NONE"
*DIVIDER /
*DELIMITER :
*BUS_DELIMITER []
*T_UNIT 1 NS
*C_UNIT 1 PF
*R_UNIT 1 OHM
*L_UNIT 1 HENRY

*NAME_MAP
*3 a1
*4 a10
*5 a11
*6 a12
*7 a13
*8 a14
*9 a15
*10 a16
*11 a2
*12 a3
*13 a4
*14 a5
*15 a6
*16 a7
*17 a8
*18 a9
*19 b1
*20 b10
*21 b11
*22 b12
*23 b13
*24 b14
*25 b15
*26 b16
*27 b2
*28 b3
*29 b4
*30 b5
*31 b6
*32 b7
*33 b8
*34 b9
*35 cin
*36 clk
*37 cout
*38 s1
*39 s10
*40 s11
*41 s12
*42 s13
*43 s14
*44 s15
*45 s16
*46 s2
*47 s3
*48 s4
*49 s5
*50 s6
*51 s7
*52 s8
*53 s9
*54 _000_
*55 _001_
*56 _002_
*57 _003_
*58 _004_
*59 _005_
*60 _006_
*61 _007_
*62 _008_
*63 _009_
*64 _010_
*65 _011_
*66 _012_
*67 _013_
*68 _014_
*69 _015_
*70 _016_
*71 _017_
*72 _018_
*73 _019_
*74 _020_
*75 _021_
*76 _022_
*77 _023_
*78 _024_
*79 _025_
*80 _026_
*81 _027_
*82 _028_
*83 _029_
*84 _030_
*85 _031_
*86 _032_
*87 _033_
*88 _034_
*89 _035_
*90 _036_
*91 _037_
*92 _038_
*93 _039_
*94 _040_
*95 _041_
*96 _042_
*97 _043_
*98 _044_
*99 _045_
*100 _046_
*101 _047_
*102 _048_
*103 _049_
*104 _050_
*105 _051_
*106 _052_
*107 _053_
*108 _054_
*109 _055_
*110 _056_
*111 _057_
*112 _058_
*113 _059_
*114 clknet_0_clk
*115 clknet_2_0__leaf_clk
*116 clknet_2_1__leaf_clk
*117 clknet_2_2__leaf_clk
*118 clknet_2_3__leaf_clk
*119 net1
*120 net10
*121 net11
*122 net12
*123 net13
*124 net14
*125 net15
*126 net16
*127 net17
*128 net18
*129 net19
*130 net2
*131 net20
*132 net21
*133 net22
*134 net23
*135 net24
*136 net25
*137 net26
*138 net27
*139 net28
*140 net29
*141 net3
*142 net30
*143 net31
*144 net32
*145 net33
*146 net34
*147 net35
*148 net36
*149 net37
*150 net38
*151 net39
*152 net4
*153 net40
*154 net41
*155 net42
*156 net43
*157 net44
*158 net45
*159 net46
*160 net47
*161 net48
*162 net49
*163 net5
*164 net50
*165 net51
*166 net52
*167 net53
*168 net54
*169 net6
*170 net7
*171 net8
*172 net9
*173 x1\.a
*174 x1\.b
*175 x1\.cin
*176 x1\.sum
*177 x11\.a
*178 x11\.b
*179 x11\.sum
*180 x12\.a
*181 x12\.b
*182 x12\.sum
*183 x13\.a
*184 x13\.b
*185 x13\.sum
*186 x14\.a
*187 x14\.b
*188 x14\.sum
*189 x16\.a
*190 x16\.b
*191 x16\.sum
*192 x17\.a
*193 x17\.b
*194 x17\.sum
*195 x18\.a
*196 x18\.b
*197 x18\.sum
*198 x19\.a
*199 x19\.b
*200 x19\.sum
*201 x2\.a
*202 x2\.b
*203 x2\.sum
*204 x20\.out
*205 x23\.A
*206 x23\.B
*207 x24\.A
*208 x24\.B
*209 x25\.A
*210 x25\.B
*211 x26\.A
*212 x26\.B
*213 x27\.A
*214 x27\.B
*215 x28\.A
*216 x28\.B
*217 x3\.sum
*218 x4\.sum
*219 x6\.sum
*220 x7\.sum
*221 x8\.sum
*222 x9\.sum
*223 FILLER_0_0_102
*224 FILLER_0_0_111
*225 FILLER_0_0_113
*226 FILLER_0_0_120
*227 FILLER_0_0_29
*228 FILLER_0_0_52
*229 FILLER_0_0_82
*230 FILLER_0_0_88
*231 FILLER_0_0_93
*232 FILLER_0_10_100
*233 FILLER_0_10_108
*234 FILLER_0_10_127
*235 FILLER_0_10_131
*236 FILLER_0_10_27
*237 FILLER_0_10_29
*238 FILLER_0_10_3
*239 FILLER_0_10_62
*240 FILLER_0_10_81
*241 FILLER_0_10_88
*242 FILLER_0_11_110
*243 FILLER_0_11_14
*244 FILLER_0_11_23
*245 FILLER_0_11_50
*246 FILLER_0_11_57
*247 FILLER_0_11_6
*248 FILLER_0_11_65
*249 FILLER_0_11_94
*250 FILLER_0_12_125
*251 FILLER_0_12_19
*252 FILLER_0_12_27
*253 FILLER_0_12_29
*254 FILLER_0_12_3
*255 FILLER_0_12_41
*256 FILLER_0_12_99
*257 FILLER_0_13_106
*258 FILLER_0_13_126
*259 FILLER_0_13_30
*260 FILLER_0_13_38
*261 FILLER_0_13_57
*262 FILLER_0_13_6
*263 FILLER_0_13_65
*264 FILLER_0_13_92
*265 FILLER_0_13_98
*266 FILLER_0_14_119
*267 FILLER_0_14_123
*268 FILLER_0_14_131
*269 FILLER_0_14_39
*270 FILLER_0_14_51
*271 FILLER_0_14_6
*272 FILLER_0_14_63
*273 FILLER_0_14_75
*274 FILLER_0_14_83
*275 FILLER_0_14_85
*276 FILLER_0_14_97
*277 FILLER_0_15_105
*278 FILLER_0_15_111
*279 FILLER_0_15_22
*280 FILLER_0_15_3
*281 FILLER_0_15_50
*282 FILLER_0_15_57
*283 FILLER_0_15_69
*284 FILLER_0_15_81
*285 FILLER_0_15_93
*286 FILLER_0_16_101
*287 FILLER_0_16_109
*288 FILLER_0_16_125
*289 FILLER_0_16_131
*290 FILLER_0_16_18
*291 FILLER_0_16_26
*292 FILLER_0_16_29
*293 FILLER_0_16_37
*294 FILLER_0_16_59
*295 FILLER_0_16_6
*296 FILLER_0_16_67
*297 FILLER_0_17_107
*298 FILLER_0_17_111
*299 FILLER_0_17_120
*300 FILLER_0_17_124
*301 FILLER_0_17_30
*302 FILLER_0_17_38
*303 FILLER_0_17_57
*304 FILLER_0_17_6
*305 FILLER_0_17_69
*306 FILLER_0_17_81
*307 FILLER_0_17_95
*308 FILLER_0_18_126
*309 FILLER_0_18_20
*310 FILLER_0_18_29
*311 FILLER_0_18_3
*312 FILLER_0_18_41
*313 FILLER_0_18_53
*314 FILLER_0_18_59
*315 FILLER_0_18_76
*316 FILLER_0_18_85
*317 FILLER_0_18_89
*318 FILLER_0_19_108
*319 FILLER_0_19_120
*320 FILLER_0_19_128
*321 FILLER_0_19_29
*322 FILLER_0_19_46
*323 FILLER_0_19_54
*324 FILLER_0_19_57
*325 FILLER_0_19_9
*326 FILLER_0_19_90
*327 FILLER_0_1_107
*328 FILLER_0_1_111
*329 FILLER_0_1_129
*330 FILLER_0_1_57
*331 FILLER_0_1_6
*332 FILLER_0_1_65
*333 FILLER_0_1_83
*334 FILLER_0_1_95
*335 FILLER_0_20_103
*336 FILLER_0_20_131
*337 FILLER_0_20_26
*338 FILLER_0_20_32
*339 FILLER_0_20_67
*340 FILLER_0_20_79
*341 FILLER_0_20_83
*342 FILLER_0_20_85
*343 FILLER_0_20_9
*344 FILLER_0_21_102
*345 FILLER_0_21_111
*346 FILLER_0_21_113
*347 FILLER_0_21_120
*348 FILLER_0_21_20
*349 FILLER_0_21_51
*350 FILLER_0_21_55
*351 FILLER_0_21_60
*352 FILLER_0_21_66
*353 FILLER_0_21_75
*354 FILLER_0_21_85
*355 FILLER_0_21_89
*356 FILLER_0_2_117
*357 FILLER_0_2_129
*358 FILLER_0_2_22
*359 FILLER_0_2_29
*360 FILLER_0_2_41
*361 FILLER_0_2_49
*362 FILLER_0_3_105
*363 FILLER_0_3_111
*364 FILLER_0_3_113
*365 FILLER_0_3_131
*366 FILLER_0_3_18
*367 FILLER_0_3_30
*368 FILLER_0_3_52
*369 FILLER_0_3_57
*370 FILLER_0_3_69
*371 FILLER_0_3_81
*372 FILLER_0_3_9
*373 FILLER_0_3_93
*374 FILLER_0_4_109
*375 FILLER_0_4_121
*376 FILLER_0_4_129
*377 FILLER_0_4_26
*378 FILLER_0_4_29
*379 FILLER_0_4_33
*380 FILLER_0_4_41
*381 FILLER_0_4_53
*382 FILLER_0_4_65
*383 FILLER_0_4_77
*384 FILLER_0_4_83
*385 FILLER_0_4_85
*386 FILLER_0_4_9
*387 FILLER_0_4_97
*388 FILLER_0_5_101
*389 FILLER_0_5_109
*390 FILLER_0_5_129
*391 FILLER_0_5_19
*392 FILLER_0_5_31
*393 FILLER_0_5_53
*394 FILLER_0_5_64
*395 FILLER_0_5_68
*396 FILLER_0_5_76
*397 FILLER_0_5_84
*398 FILLER_0_6_117
*399 FILLER_0_6_129
*400 FILLER_0_6_13
*401 FILLER_0_6_21
*402 FILLER_0_6_27
*403 FILLER_0_6_29
*404 FILLER_0_6_37
*405 FILLER_0_6_6
*406 FILLER_0_6_69
*407 FILLER_0_6_85
*408 FILLER_0_7_103
*409 FILLER_0_7_111
*410 FILLER_0_7_113
*411 FILLER_0_7_131
*412 FILLER_0_7_21
*413 FILLER_0_7_29
*414 FILLER_0_7_3
*415 FILLER_0_7_55
*416 FILLER_0_7_71
*417 FILLER_0_7_88
*418 FILLER_0_7_96
*419 FILLER_0_8_102
*420 FILLER_0_8_114
*421 FILLER_0_8_126
*422 FILLER_0_8_18
*423 FILLER_0_8_26
*424 FILLER_0_8_29
*425 FILLER_0_8_48
*426 FILLER_0_8_56
*427 FILLER_0_8_6
*428 FILLER_0_8_63
*429 FILLER_0_8_73
*430 FILLER_0_8_77
*431 FILLER_0_8_85
*432 FILLER_0_9_101
*433 FILLER_0_9_111
*434 FILLER_0_9_113
*435 FILLER_0_9_125
*436 FILLER_0_9_131
*437 FILLER_0_9_30
*438 FILLER_0_9_51
*439 FILLER_0_9_55
*440 FILLER_0_9_57
*441 FILLER_0_9_6
*442 FILLER_0_9_69
*443 FILLER_0_9_81
*444 FILLER_0_9_93
*445 PHY_EDGE_ROW_0_Left_22
*446 PHY_EDGE_ROW_0_Right_0
*447 PHY_EDGE_ROW_10_Left_32
*448 PHY_EDGE_ROW_10_Right_10
*449 PHY_EDGE_ROW_11_Left_33
*450 PHY_EDGE_ROW_11_Right_11
*451 PHY_EDGE_ROW_12_Left_34
*452 PHY_EDGE_ROW_12_Right_12
*453 PHY_EDGE_ROW_13_Left_35
*454 PHY_EDGE_ROW_13_Right_13
*455 PHY_EDGE_ROW_14_Left_36
*456 PHY_EDGE_ROW_14_Right_14
*457 PHY_EDGE_ROW_15_Left_37
*458 PHY_EDGE_ROW_15_Right_15
*459 PHY_EDGE_ROW_16_Left_38
*460 PHY_EDGE_ROW_16_Right_16
*461 PHY_EDGE_ROW_17_Left_39
*462 PHY_EDGE_ROW_17_Right_17
*463 PHY_EDGE_ROW_18_Left_40
*464 PHY_EDGE_ROW_18_Right_18
*465 PHY_EDGE_ROW_19_Left_41
*466 PHY_EDGE_ROW_19_Right_19
*467 PHY_EDGE_ROW_1_Left_23
*468 PHY_EDGE_ROW_1_Right_1
*469 PHY_EDGE_ROW_20_Left_42
*470 PHY_EDGE_ROW_20_Right_20
*471 PHY_EDGE_ROW_21_Left_43
*472 PHY_EDGE_ROW_21_Right_21
*473 PHY_EDGE_ROW_2_Left_24
*474 PHY_EDGE_ROW_2_Right_2
*475 PHY_EDGE_ROW_3_Left_25
*476 PHY_EDGE_ROW_3_Right_3
*477 PHY_EDGE_ROW_4_Left_26
*478 PHY_EDGE_ROW_4_Right_4
*479 PHY_EDGE_ROW_5_Left_27
*480 PHY_EDGE_ROW_5_Right_5
*481 PHY_EDGE_ROW_6_Left_28
*482 PHY_EDGE_ROW_6_Right_6
*483 PHY_EDGE_ROW_7_Left_29
*484 PHY_EDGE_ROW_7_Right_7
*485 PHY_EDGE_ROW_8_Left_30
*486 PHY_EDGE_ROW_8_Right_8
*487 PHY_EDGE_ROW_9_Left_31
*488 PHY_EDGE_ROW_9_Right_9
*489 TAP_TAPCELL_ROW_0_44
*490 TAP_TAPCELL_ROW_0_45
*491 TAP_TAPCELL_ROW_0_46
*492 TAP_TAPCELL_ROW_0_47
*493 TAP_TAPCELL_ROW_10_66
*494 TAP_TAPCELL_ROW_10_67
*495 TAP_TAPCELL_ROW_11_68
*496 TAP_TAPCELL_ROW_11_69
*497 TAP_TAPCELL_ROW_12_70
*498 TAP_TAPCELL_ROW_12_71
*499 TAP_TAPCELL_ROW_13_72
*500 TAP_TAPCELL_ROW_13_73
*501 TAP_TAPCELL_ROW_14_74
*502 TAP_TAPCELL_ROW_14_75
*503 TAP_TAPCELL_ROW_15_76
*504 TAP_TAPCELL_ROW_15_77
*505 TAP_TAPCELL_ROW_16_78
*506 TAP_TAPCELL_ROW_16_79
*507 TAP_TAPCELL_ROW_17_80
*508 TAP_TAPCELL_ROW_17_81
*509 TAP_TAPCELL_ROW_18_82
*510 TAP_TAPCELL_ROW_18_83
*511 TAP_TAPCELL_ROW_19_84
*512 TAP_TAPCELL_ROW_19_85
*513 TAP_TAPCELL_ROW_1_48
*514 TAP_TAPCELL_ROW_1_49
*515 TAP_TAPCELL_ROW_20_86
*516 TAP_TAPCELL_ROW_20_87
*517 TAP_TAPCELL_ROW_21_88
*518 TAP_TAPCELL_ROW_21_89
*519 TAP_TAPCELL_ROW_21_90
*520 TAP_TAPCELL_ROW_21_91
*521 TAP_TAPCELL_ROW_2_50
*522 TAP_TAPCELL_ROW_2_51
*523 TAP_TAPCELL_ROW_3_52
*524 TAP_TAPCELL_ROW_3_53
*525 TAP_TAPCELL_ROW_4_54
*526 TAP_TAPCELL_ROW_4_55
*527 TAP_TAPCELL_ROW_5_56
*528 TAP_TAPCELL_ROW_5_57
*529 TAP_TAPCELL_ROW_6_58
*530 TAP_TAPCELL_ROW_6_59
*531 TAP_TAPCELL_ROW_7_60
*532 TAP_TAPCELL_ROW_7_61
*533 TAP_TAPCELL_ROW_8_62
*534 TAP_TAPCELL_ROW_8_63
*535 TAP_TAPCELL_ROW_9_64
*536 TAP_TAPCELL_ROW_9_65
*537 _060_
*538 _061_
*539 _062_
*540 _063_
*541 _064_
*542 _065_
*543 _066_
*544 _067_
*545 _068_
*546 _069_
*547 _070_
*548 _071_
*549 _072_
*550 _073_
*551 _074_
*552 _075_
*553 _076_
*554 _077_
*555 _078_
*556 _079_
*557 _080_
*558 _081_
*559 _082_
*560 _083_
*561 _084_
*562 _085_
*563 _086_
*564 _087_
*565 _088_
*566 _089_
*567 _090_
*568 _091_
*569 _092_
*570 _093_
*571 _094_
*572 _095_
*573 _096_
*574 _097_
*575 _098_
*576 _099_
*577 _100_
*578 _101_
*579 _102_
*580 _103_
*581 _104_
*582 _105_
*583 _106_
*584 _107_
*585 _108_
*586 _109_
*587 _110_
*588 _111_
*589 _112_
*590 _113_
*591 _114_
*592 _115_
*593 _116_
*594 _117_
*595 _118_
*596 _119_
*597 _120_
*598 _121_
*599 _122_
*600 _123_
*601 _124_
*602 _125_
*603 _126_
*604 _127_
*605 _128_
*606 _129_
*607 _130_
*608 _131_
*609 _132_
*610 _133_
*611 _134_
*612 _135_
*613 _136_
*614 _137_
*615 _138_
*616 _139_
*617 _140_
*618 _141_
*619 _142_
*620 _143_
*621 _144_
*622 _145_
*623 _146_
*624 _147_
*625 _148_
*626 _149_
*627 _150_
*628 _151_
*629 _152_
*630 _153_
*631 _154_
*632 _155_
*633 _156_
*634 _157_
*635 _158_
*636 _159_
*637 _160_
*638 _161_
*639 _162_
*640 _163_
*641 _164_
*642 _165_
*643 _166_
*644 _167_
*645 _168_
*646 _169_
*647 _170_
*648 _171_
*649 _172_
*650 _173_
*651 _174_
*652 _175_
*653 _176_
*654 _177_
*655 _178_
*656 _179_
*657 _180_
*658 _181_
*659 _182_
*660 _183_
*661 _184_
*662 _185_
*663 _186_
*664 clkbuf_0_clk
*665 clkbuf_2_0__f_clk
*666 clkbuf_2_1__f_clk
*667 clkbuf_2_2__f_clk
*668 clkbuf_2_3__f_clk
*669 clkload0
*670 clkload1
*671 clkload2
*672 input1
*673 input10
*674 input11
*675 input12
*676 input13
*677 input14
*678 input15
*679 input16
*680 input17
*681 input18
*682 input19
*683 input2
*684 input20
*685 input21
*686 input22
*687 input23
*688 input24
*689 input25
*690 input26
*691 input27
*692 input28
*693 input29
*694 input3
*695 input30
*696 input31
*697 input32
*698 input33
*699 input4
*700 input5
*701 input6
*702 input7
*703 input8
*704 input9
*705 output34
*706 output35
*707 output36
*708 output37
*709 output38
*710 output39
*711 output40
*712 output41
*713 output42
*714 output43
*715 output44
*716 output45
*717 output46
*718 output47
*719 output48
*720 output49
*721 output50
*722 rebuffer1
*723 rebuffer2
*724 rebuffer3
*725 rebuffer4

*PORTS
a1 I
a10 I
a11 I
a12 I
a13 I
a14 I
a15 I
a16 I
a2 I
a3 I
a4 I
a5 I
a6 I
a7 I
a8 I
a9 I
b1 I
b10 I
b11 I
b12 I
b13 I
b14 I
b15 I
b16 I
b2 I
b3 I
b4 I
b5 I
b6 I
b7 I
b8 I
b9 I
cin I
clk I
cout O
s1 O
s10 O
s11 O
s12 O
s13 O
s14 O
s15 O
s16 O
s2 O
s3 O
s4 O
s5 O
s6 O
s7 O
s8 O
s9 O

*D_NET *3 0.00190099
*CONN
*P a1 I
*I *672:A I *D sky130_fd_sc_hd__clkbuf_1
*CAP
1 a1 0.000898445
2 *672:A 0
3 *3:11 0.000898445
4 *3:11 *11:13 0
5 *3:11 *37:10 0
6 *3:11 *44:16 6.94657e-05
7 *3:11 *205:8 3.46302e-05
*RES
1 a1 *3:11 34.2643 
2 *3:11 *672:A 23 
*END

*D_NET *4 0.00138175
*CONN
*P a10 I
*I *683:A I *D sky130_fd_sc_hd__clkbuf_1
*CAP
1 a10 0.000609422
2 *683:A 0
3 *4:13 0.000609422
4 *4:13 *5:13 0
5 *4:13 *18:9 0
6 *4:13 *130:8 6.17437e-06
7 *4:13 *130:14 6.48049e-05
8 *4:13 *141:12 9.1926e-05
*RES
1 a10 *4:13 28.3814 
2 *4:13 *683:A 23 
*END

*D_NET *5 0.00150242
*CONN
*P a11 I
*I *694:A I *D sky130_fd_sc_hd__clkbuf_1
*CAP
1 a11 0.000628565
2 *694:A 0
3 *5:13 0.000628565
4 *5:13 *6:11 0
5 *5:13 *60:8 0.000191255
6 *5:13 *141:12 5.40337e-05
7 *4:13 *5:13 0
*RES
1 a11 *5:13 29.3343 
2 *5:13 *694:A 23 
*END

*D_NET *6 0.00134503
*CONN
*P a12 I
*I *699:A I *D sky130_fd_sc_hd__clkbuf_1
*CAP
1 a12 0.000600686
2 *699:A 0
3 *6:11 0.000600686
4 *6:11 *591:A_N 0.000143655
5 *6:11 *7:9 0
6 *5:13 *6:11 0
*RES
1 a12 *6:11 28.2364 
2 *6:11 *699:A 23 
*END

*D_NET *7 0.00125295
*CONN
*P a13 I
*I *700:A I *D sky130_fd_sc_hd__clkbuf_1
*CAP
1 a13 0.000626475
2 *700:A 0
3 *7:9 0.000626475
4 *7:9 *169:10 0
5 *6:11 *7:9 0
*RES
1 a13 *7:9 28.0914 
2 *7:9 *700:A 23 
*END

*D_NET *8 0.00123672
*CONN
*P a14 I
*I *701:A I *D sky130_fd_sc_hd__clkbuf_1
*CAP
1 a14 0.000585305
2 *701:A 0
3 *8:9 0.000585305
4 *8:9 *9:13 0
5 *8:9 *169:10 0
6 *8:9 *171:10 6.61056e-05
*RES
1 a14 *8:9 28.0914 
2 *8:9 *701:A 23 
*END

*D_NET *9 0.0013101
*CONN
*P a15 I
*I *702:A I *D sky130_fd_sc_hd__clkbuf_1
*CAP
1 a15 0.000640383
2 *702:A 0
3 *9:13 0.000640383
4 *9:13 *10:9 0
5 *9:13 *171:10 2.93335e-05
6 *8:9 *9:13 0
*RES
1 a15 *9:13 28.3814 
2 *9:13 *702:A 23 
*END

*D_NET *10 0.0012259
*CONN
*P a16 I
*I *703:A I *D sky130_fd_sc_hd__clkbuf_1
*CAP
1 a16 0.000612948
2 *703:A 0
3 *10:9 0.000612948
4 *9:13 *10:9 0
*RES
1 a16 *10:9 28.0914 
2 *10:9 *703:A 23 
*END

*D_NET *11 0.00242542
*CONN
*P a2 I
*I *704:A I *D sky130_fd_sc_hd__clkbuf_1
*CAP
1 a2 0.000880728
2 *704:A 0
3 *11:13 0.000880728
4 *11:13 *614:CLK 0.000662214
5 *11:13 *12:11 0
6 *11:13 *37:10 0
7 *11:13 *119:8 1.74874e-06
8 *3:11 *11:13 0
*RES
1 a2 *11:13 34.575 
2 *11:13 *704:A 23 
*END

*D_NET *12 0.00290968
*CONN
*P a3 I
*I *673:A I *D sky130_fd_sc_hd__clkbuf_1
*CAP
1 a3 0.00116656
2 *673:A 0
3 *12:11 0.00116656
4 *12:11 *661:CLK 0.000147489
5 *12:11 *661:D 0.000265816
6 *12:11 *705:A 0.00016325
7 *12:11 *119:8 0
8 *12:11 *173:14 0
9 *11:13 *12:11 0
*RES
1 a3 *12:11 40.5407 
2 *12:11 *673:A 23 
*END

*D_NET *13 0.00121045
*CONN
*P a4 I
*I *674:A I *D sky130_fd_sc_hd__clkbuf_1
*CAP
1 a4 0.000575472
2 *674:A 0
3 *13:9 0.000575472
4 *13:9 *614:CLK 5.56279e-05
5 *13:9 *14:11 0
6 *13:9 *45:10 3.87221e-06
7 *13:9 *172:10 0
*RES
1 a4 *13:9 27.1386 
2 *13:9 *674:A 23 
*END

*D_NET *14 0.00228679
*CONN
*P a5 I
*I *675:A I *D sky130_fd_sc_hd__clkbuf_1
*CAP
1 a5 0.000915787
2 *675:A 0
3 *14:11 0.000915787
4 *14:11 *624:D 0
5 *14:11 *123:8 9.84851e-05
6 *14:11 *207:10 0.00035673
7 *13:9 *14:11 0
*RES
1 a5 *14:11 33.9536 
2 *14:11 *675:A 23 
*END

*D_NET *15 0.00122175
*CONN
*P a6 I
*I *676:A I *D sky130_fd_sc_hd__clkbuf_1
*CAP
1 a6 0.000610876
2 *676:A 0
3 *15:9 0.000610876
4 *15:9 *16:9 0
*RES
1 a6 *15:9 28.0914 
2 *15:9 *676:A 23 
*END

*D_NET *16 0.00142249
*CONN
*P a7 I
*I *677:A I *D sky130_fd_sc_hd__clkbuf_1
*CAP
1 a7 0.000685294
2 *677:A 0
3 *16:9 0.000685294
4 *16:9 *17:9 0
5 *16:9 *124:10 5.19036e-05
6 *15:9 *16:9 0
*RES
1 a7 *16:9 29.5207 
2 *16:9 *677:A 23 
*END

*D_NET *17 0.00125419
*CONN
*P a8 I
*I *678:A I *D sky130_fd_sc_hd__clkbuf_1
*CAP
1 a8 0.000627094
2 *678:A 0
3 *17:9 0.000627094
4 *16:9 *17:9 0
*RES
1 a8 *17:9 28.0914 
2 *17:9 *678:A 23 
*END

*D_NET *18 0.00118729
*CONN
*P a9 I
*I *679:A I *D sky130_fd_sc_hd__clkbuf_1
*CAP
1 a9 0.000593645
2 *679:A 0
3 *18:9 0.000593645
4 *18:9 *130:14 0
5 *4:13 *18:9 0
*RES
1 a9 *18:9 28.0914 
2 *18:9 *679:A 23 
*END

*D_NET *19 0.00217507
*CONN
*P b1 I
*I *680:A I *D sky130_fd_sc_hd__clkbuf_1
*CAP
1 b1 0.00106
2 *680:A 0
3 *19:11 0.00106
4 *19:11 s3 2.55411e-05
5 *19:11 *689:A 0
6 *19:11 *46:14 2.95423e-05
7 *19:11 *48:10 0
8 *19:11 *115:113 0
*RES
1 b1 *19:11 37.0814 
2 *19:11 *680:A 23 
*END

*D_NET *20 0.00122412
*CONN
*P b10 I
*I *681:A I *D sky130_fd_sc_hd__clkbuf_1
*CAP
1 b10 0.000570203
2 *681:A 0
3 *20:9 0.000570203
4 *20:9 *682:A 0
5 *20:9 *34:11 0
6 *20:9 *128:10 8.37178e-05
*RES
1 b10 *20:9 27.18 
2 *20:9 *681:A 23 
*END

*D_NET *21 0.00116712
*CONN
*P b11 I
*I *682:A I *D sky130_fd_sc_hd__clkbuf_1
*CAP
1 b11 0.000566435
2 *682:A 0.000566435
3 *682:A *684:A 0
4 *682:A *129:10 3.42479e-05
5 *20:9 *682:A 0
*RES
1 b11 *682:A 49.5171 
*END

*D_NET *22 0.00090292
*CONN
*P b12 I
*I *684:A I *D sky130_fd_sc_hd__clkbuf_1
*CAP
1 b12 0.00045146
2 *684:A 0.00045146
3 *684:A *685:A 0
4 *682:A *684:A 0
*RES
1 b12 *684:A 47.3214 
*END

*D_NET *23 0.000901682
*CONN
*P b13 I
*I *685:A I *D sky130_fd_sc_hd__clkbuf_1
*CAP
1 b13 0.000450841
2 *685:A 0.000450841
3 *685:A *686:A 0
4 *684:A *685:A 0
*RES
1 b13 *685:A 47.3214 
*END

*D_NET *24 0.00100823
*CONN
*P b14 I
*I *686:A I *D sky130_fd_sc_hd__clkbuf_1
*CAP
1 b14 0.000494944
2 *686:A 0.000494944
3 *686:A *687:A 0
4 *686:A *133:8 1.83408e-05
5 *685:A *686:A 0
*RES
1 b14 *686:A 48.2743 
*END

*D_NET *25 0.00105299
*CONN
*P b15 I
*I *687:A I *D sky130_fd_sc_hd__clkbuf_1
*CAP
1 b15 0.000524638
2 *687:A 0.000524638
3 *687:A *688:A 0
4 *687:A *134:8 3.7122e-06
5 *686:A *687:A 0
*RES
1 b15 *687:A 48.5643 
*END

*D_NET *26 0.0010262
*CONN
*P b16 I
*I *688:A I *D sky130_fd_sc_hd__clkbuf_1
*CAP
1 b16 0.000513101
2 *688:A 0.000513101
3 *687:A *688:A 0
*RES
1 b16 *688:A 48.2743 
*END

*D_NET *27 0.00119984
*CONN
*P b2 I
*I *689:A I *D sky130_fd_sc_hd__clkbuf_1
*CAP
1 b2 0.000544032
2 *689:A 0.000544032
3 *689:A *28:13 9.84794e-05
4 *689:A *136:20 1.32939e-05
5 *19:11 *689:A 0
*RES
1 b2 *689:A 49.3721 
*END

*D_NET *28 0.00161365
*CONN
*P b3 I
*I *690:A I *D sky130_fd_sc_hd__clkbuf_1
*CAP
1 b3 0.000645726
2 *690:A 0
3 *28:13 0.000645726
4 *28:13 *647:D 1.74843e-05
5 *28:13 *691:A 0
6 *28:13 *38:8 0.000129224
7 *28:13 *136:20 2.30292e-05
8 *28:13 *137:10 5.39789e-05
9 *689:A *28:13 9.84794e-05
*RES
1 b3 *28:13 29.3757 
2 *28:13 *690:A 23 
*END

*D_NET *29 0.00091556
*CONN
*P b4 I
*I *691:A I *D sky130_fd_sc_hd__clkbuf_1
*CAP
1 b4 0.00045778
2 *691:A 0.00045778
3 *691:A *692:A 0
4 *691:A *38:8 0
5 *28:13 *691:A 0
*RES
1 b4 *691:A 47.3214 
*END

*D_NET *30 0.00118702
*CONN
*P b5 I
*I *692:A I *D sky130_fd_sc_hd__clkbuf_1
*CAP
1 b5 0.000544269
2 *692:A 0.000544269
3 *692:A *623:D 9.84794e-05
4 *692:A *31:9 0
5 *691:A *692:A 0
*RES
1 b5 *692:A 49.5171 
*END

*D_NET *31 0.00124458
*CONN
*P b6 I
*I *693:A I *D sky130_fd_sc_hd__clkbuf_1
*CAP
1 b6 0.000571123
2 *693:A 0
3 *31:9 0.000571123
4 *31:9 *695:A 0
5 *31:9 *140:18 2.07484e-05
6 *31:9 *210:8 8.15864e-05
7 *31:9 *210:14 0
8 *692:A *31:9 0
*RES
1 b6 *31:9 27.18 
2 *31:9 *693:A 23 
*END

*D_NET *32 0.00143571
*CONN
*P b7 I
*I *695:A I *D sky130_fd_sc_hd__clkbuf_1
*CAP
1 b7 0.000548606
2 *695:A 0.000548606
3 *695:A *629:CLK 0.000275599
4 *695:A *696:A 0
5 *695:A *210:8 2.64616e-05
6 *695:A *210:14 3.64337e-05
7 *31:9 *695:A 0
*RES
1 b7 *695:A 49.8486 
*END

*D_NET *33 0.00109482
*CONN
*P b8 I
*I *696:A I *D sky130_fd_sc_hd__clkbuf_1
*CAP
1 b8 0.00049195
2 *696:A 0.00049195
3 *696:A *629:CLK 9.84794e-05
4 *696:A *629:D 1.24376e-05
5 *696:A *34:11 0
6 *696:A *210:14 0
7 *695:A *696:A 0
*RES
1 b8 *696:A 47.7979 
*END

*D_NET *34 0.00149361
*CONN
*P b9 I
*I *697:A I *D sky130_fd_sc_hd__clkbuf_1
*CAP
1 b9 0.00052761
2 *697:A 0
3 *34:11 0.00052761
4 *34:11 *629:CLK 0.000143655
5 *34:11 *629:D 0.000259429
6 *34:11 *144:10 3.53115e-05
7 *696:A *34:11 0
8 *20:9 *34:11 0
*RES
1 b9 *34:11 27.8014 
2 *34:11 *697:A 23 
*END

*D_NET *35 0.000647174
*CONN
*P cin I
*I *698:A I *D sky130_fd_sc_hd__buf_1
*CAP
1 cin 0.000317563
2 *698:A 0.000317563
3 *698:A *145:8 1.20476e-05
*RES
1 cin *698:A 48.2212 
*END

*D_NET *36 0.00878044
*CONN
*P clk I
*I *664:A I *D sky130_fd_sc_hd__clkbuf_16
*CAP
1 clk 0.00436695
2 *664:A 0
3 *36:19 0.00436695
4 *36:19 *604:A 4.65429e-05
5 *36:19 *67:14 0
*RES
1 clk *36:19 49.3724 
2 *36:19 *664:A 23 
*END

*D_NET *37 0.00195145
*CONN
*P cout O
*I *705:X O *D sky130_fd_sc_hd__buf_1
*CAP
1 cout 0.000247664
2 *705:X 0.000565783
3 *37:10 0.000813447
4 cout s16 0
5 *37:10 *119:8 8.42785e-05
6 *37:10 *153:10 6.43792e-05
7 *37:10 *154:10 0.00015369
8 *37:10 *205:12 2.22077e-05
9 *3:11 *37:10 0
10 *11:13 *37:10 0
*RES
1 *705:X *37:10 49.9832 
2 *37:10 cout 8.84373 
*END

*D_NET *38 0.00226752
*CONN
*P s1 O
*I *706:X O *D sky130_fd_sc_hd__buf_1
*CAP
1 s1 0.000598856
2 *706:X 0.000377252
3 *38:8 0.000976108
4 s1 s2 0
5 *38:8 *147:10 9.89261e-05
6 *38:8 *176:8 0
7 *38:8 *206:12 8.71559e-05
8 *691:A *38:8 0
9 *28:13 *38:8 0.000129224
*RES
1 *706:X *38:8 46.7725 
2 *38:8 s1 10.1317 
*END

*D_NET *39 0.000736754
*CONN
*P s10 O
*I *707:X O *D sky130_fd_sc_hd__buf_1
*CAP
1 s10 0.000109732
2 *707:X 0.000255666
3 *39:10 0.000365399
4 s10 s11 5.95675e-06
5 s10 s9 0
6 s10 *40:16 0
7 *39:10 *40:16 0
8 *39:10 *201:12 0
*RES
1 *707:X *39:10 42.0289 
2 *39:10 s10 8.4816 
*END

*D_NET *40 0.000725319
*CONN
*P s11 O
*I *708:X O *D sky130_fd_sc_hd__buf_1
*CAP
1 s11 4.35807e-05
2 *708:X 0.000312028
3 *40:16 0.000355608
4 s11 s12 0
5 *40:16 s12 8.14539e-06
6 s10 s11 5.95675e-06
7 s10 *40:16 0
8 *39:10 *40:16 0
*RES
1 *708:X *40:16 49.9587 
2 *40:16 s11 0.199733 
*END

*D_NET *41 0.000701815
*CONN
*P s12 O
*I *709:X O *D sky130_fd_sc_hd__buf_1
*CAP
1 s12 0.000283221
2 *709:X 0.000283221
3 s12 s13 0
4 s12 *42:16 0
5 s12 *201:12 0.000127227
6 s11 s12 0
7 *40:16 s12 8.14539e-06
*RES
1 *709:X s12 48.4875 
*END

*D_NET *42 0.00073014
*CONN
*P s13 O
*I *710:X O *D sky130_fd_sc_hd__buf_1
*CAP
1 s13 4.64007e-05
2 *710:X 0.000314597
3 *42:16 0.000360997
4 s13 s14 0
5 *42:16 s14 8.14539e-06
6 s12 s13 0
7 s12 *42:16 0
*RES
1 *710:X *42:16 49.9587 
2 *42:16 s13 0.199733 
*END

*D_NET *43 0.000621163
*CONN
*P s14 O
*I *711:X O *D sky130_fd_sc_hd__buf_1
*CAP
1 s14 0.000276897
2 *711:X 0.000276897
3 s14 s15 0
4 s14 *44:16 0
5 s14 *153:10 5.92233e-05
6 s13 s14 0
7 *42:16 s14 8.14539e-06
*RES
1 *711:X s14 48.4875 
*END

*D_NET *44 0.000748083
*CONN
*P s15 O
*I *712:X O *D sky130_fd_sc_hd__buf_1
*CAP
1 s15 4.64007e-05
2 *712:X 0.000288835
3 *44:16 0.000335236
4 s15 s16 0
5 *44:16 s16 8.14539e-06
6 s14 s15 0
7 s14 *44:16 0
8 *3:11 *44:16 6.94657e-05
*RES
1 *712:X *44:16 49.9587 
2 *44:16 s15 0.199733 
*END

*D_NET *45 0.0031349
*CONN
*P s16 O
*I *713:X O *D sky130_fd_sc_hd__buf_1
*CAP
1 s16 0.00136243
2 *713:X 0.000115062
3 *45:10 0.0014775
4 *45:10 *116:78 0.000167888
5 *45:10 *172:10 0
6 cout s16 0
7 s15 s16 0
8 *13:9 *45:10 3.87221e-06
9 *44:16 s16 8.14539e-06
*RES
1 *713:X *45:10 48.4339 
2 *45:10 s16 2.9904 
*END

*D_NET *46 0.00160812
*CONN
*P s2 O
*I *714:X O *D sky130_fd_sc_hd__buf_1
*CAP
1 s2 0.000216242
2 *714:X 0.000366744
3 *46:14 0.000582986
4 s2 s3 0
5 *46:14 *115:113 0.000221848
6 *46:14 *115:128 0
7 *46:14 *127:8 8.08108e-05
8 *46:14 *136:20 3.43764e-05
9 *46:14 *157:14 7.55731e-05
10 s1 s2 0
11 *19:11 *46:14 2.95423e-05
*RES
1 *714:X *46:14 46.7518 
2 *46:14 s2 8.75787 
*END

*D_NET *47 0.000685053
*CONN
*P s3 O
*I *715:X O *D sky130_fd_sc_hd__buf_1
*CAP
1 s3 0.000293011
2 *715:X 0.000293011
3 s3 s4 0
4 s3 *115:113 7.34898e-05
5 s2 s3 0
6 *19:11 s3 2.55411e-05
*RES
1 *715:X s3 48.3188 
*END

*D_NET *48 0.000999325
*CONN
*P s4 O
*I *716:X O *D sky130_fd_sc_hd__buf_1
*CAP
1 s4 0.00010757
2 *716:X 0.000369473
3 *48:10 0.000477044
4 s4 s5 1.05236e-05
5 *48:10 s5 5.1614e-06
6 *48:10 *156:10 0
7 *48:10 *159:14 2.95526e-05
8 s3 s4 0
9 *19:11 *48:10 0
*RES
1 *716:X *48:10 43.4582 
2 *48:10 s4 8.4816 
*END

*D_NET *49 0.00065064
*CONN
*P s5 O
*I *717:X O *D sky130_fd_sc_hd__buf_1
*CAP
1 s5 0.000308936
2 *717:X 0.000308936
3 s5 s6 0
4 s5 *156:10 1.70831e-05
5 s4 s5 1.05236e-05
6 *48:10 s5 5.1614e-06
*RES
1 *717:X s5 48.3188 
*END

*D_NET *50 0.000530879
*CONN
*P s6 O
*I *718:X O *D sky130_fd_sc_hd__buf_1
*CAP
1 s6 0.000265439
2 *718:X 0.000265439
3 s6 s7 0
4 s6 *51:16 0
5 s5 s6 0
*RES
1 *718:X s6 48.7862 
*END

*D_NET *51 0.000726398
*CONN
*P s7 O
*I *719:X O *D sky130_fd_sc_hd__buf_1
*CAP
1 s7 4.64007e-05
2 *719:X 0.000310487
3 *51:16 0.000356888
4 s7 s8 0
5 *51:16 s8 1.26232e-05
6 s6 s7 0
7 s6 *51:16 0
*RES
1 *719:X *51:16 49.9587 
2 *51:16 s7 0.199733 
*END

*D_NET *52 0.000634926
*CONN
*P s8 O
*I *720:X O *D sky130_fd_sc_hd__buf_1
*CAP
1 s8 0.000311151
2 *720:X 0.000311151
3 s8 s9 0
4 s7 s8 0
5 *51:16 s8 1.26232e-05
*RES
1 *720:X s8 49.8062 
*END

*D_NET *53 0.000516428
*CONN
*P s9 O
*I *721:X O *D sky130_fd_sc_hd__buf_1
*CAP
1 s9 0.000250816
2 *721:X 0.000250816
3 s9 *205:12 1.4796e-05
4 s10 s9 0
5 s8 s9 0
*RES
1 *721:X s9 47.4311 
*END

*D_NET *54 0.000667152
*CONN
*I *586:B1 I *D sky130_fd_sc_hd__a21oi_2
*I *585:X O *D sky130_fd_sc_hd__and2b_1
*CAP
1 *586:B1 9.51936e-05
2 *585:X 0.000143894
3 *54:10 0.000239087
4 *54:10 *585:A_N 5.79559e-05
5 *54:10 *55:10 0
6 *54:10 *192:10 0.000131021
*RES
1 *585:X *54:10 40.5271 
2 *54:10 *586:B1 39.5743 
*END

*D_NET *55 0.00310098
*CONN
*I *587:B I *D sky130_fd_sc_hd__xnor2_1
*I *588:A_N I *D sky130_fd_sc_hd__and2b_1
*I *586:Y O *D sky130_fd_sc_hd__a21oi_2
*CAP
1 *587:B 0.000291227
2 *588:A_N 0.000399845
3 *586:Y 0.000389294
4 *55:10 0.00108037
5 *587:B *56:10 0.000259416
6 *587:B *145:8 0
7 *588:A_N *588:B 7.27052e-05
8 *588:A_N *640:D 1.74843e-05
9 *588:A_N *57:10 0.000399511
10 *55:10 *586:A1 5.37348e-06
11 *55:10 *56:10 0.000185755
12 *55:10 *113:10 0
13 *55:10 *145:8 0
14 *55:10 *192:10 0
15 *55:10 *193:12 0
16 *55:10 *196:18 0
17 *54:10 *55:10 0
*RES
1 *586:Y *55:10 44.7529 
2 *55:10 *588:A_N 46.2443 
3 *55:10 *587:B 43.8414 
*END

*D_NET *56 0.00225366
*CONN
*I *589:A2 I *D sky130_fd_sc_hd__a21oi_2
*I *603:B I *D sky130_fd_sc_hd__xor2_1
*I *587:Y O *D sky130_fd_sc_hd__xnor2_1
*CAP
1 *589:A2 0.000252693
2 *603:B 0.000100917
3 *587:Y 0.000274259
4 *56:12 0.00035361
5 *56:10 0.000274259
6 *589:A2 *589:A1 9.14874e-05
7 *589:A2 *589:B1 0.000229801
8 *603:B *589:A1 1.71761e-05
9 *603:B *589:B1 0.000100061
10 *603:B *196:18 5.79559e-05
11 *56:10 *57:10 5.62672e-05
12 *56:10 *169:10 0
13 *56:10 *196:18 0
14 *56:10 *197:10 0
15 *587:B *56:10 0.000259416
16 *55:10 *56:10 0.000185755
*RES
1 *587:Y *56:10 44.0486 
2 *56:10 *56:12 15 
3 *56:12 *603:B 25.0507 
4 *56:12 *589:A2 28.3857 
*END

*D_NET *57 0.0020794
*CONN
*I *589:B1 I *D sky130_fd_sc_hd__a21oi_2
*I *588:X O *D sky130_fd_sc_hd__and2b_1
*CAP
1 *589:B1 7.44745e-05
2 *588:X 0.000414854
3 *57:10 0.000489329
4 *589:B1 *589:A1 0.000315104
5 *57:10 *197:10 0
6 *588:A_N *57:10 0.000399511
7 *589:A2 *589:B1 0.000229801
8 *603:B *589:B1 0.000100061
9 *56:10 *57:10 5.62672e-05
*RES
1 *588:X *57:10 44.3386 
2 *57:10 *589:B1 41.48 
*END

*D_NET *58 0.00419664
*CONN
*I *591:A_N I *D sky130_fd_sc_hd__and2b_1
*I *590:B I *D sky130_fd_sc_hd__xnor2_1
*I *589:Y O *D sky130_fd_sc_hd__a21oi_2
*CAP
1 *591:A_N 0.000395675
2 *590:B 0
3 *589:Y 0.00081325
4 *58:10 0.000511457
5 *58:8 0.000929032
6 *591:A_N *590:A 0.000338091
7 *591:A_N *591:B 0.000388518
8 *591:A_N *163:12 0
9 *58:8 *589:A1 0.000402727
10 *58:8 *194:14 0.000144352
11 *58:8 *196:18 7.12732e-05
12 *58:8 *197:10 1.94812e-05
13 *58:10 *590:A 3.9131e-05
14 *58:10 *612:A 0
15 *58:10 *186:8 0
16 *6:11 *591:A_N 0.000143655
*RES
1 *589:Y *58:8 49.5793 
2 *58:8 *58:10 2.25786 
3 *58:10 *590:B 38 
4 *58:10 *591:A_N 48.295 
*END

*D_NET *59 0.000807848
*CONN
*I *612:B I *D sky130_fd_sc_hd__xor2_1
*I *592:A2 I *D sky130_fd_sc_hd__a21o_1
*I *590:Y O *D sky130_fd_sc_hd__xnor2_1
*CAP
1 *612:B 0
2 *592:A2 0
3 *590:Y 9.01733e-05
4 *59:16 0.000148621
5 *59:8 0.000238795
6 *59:8 *612:A 2.64616e-05
7 *59:16 *590:A 0
8 *59:16 *592:A1 5.50049e-05
9 *59:16 *612:A 0.000157309
10 *59:16 *194:14 5.67058e-05
11 *59:16 *199:10 3.47781e-05
*RES
1 *590:Y *59:8 24.595 
2 *59:8 *59:16 33.5836 
3 *59:16 *592:A2 23 
4 *59:8 *612:B 23 
*END

*D_NET *60 0.00254678
*CONN
*I *592:B1 I *D sky130_fd_sc_hd__a21o_1
*I *591:X O *D sky130_fd_sc_hd__and2b_1
*CAP
1 *592:B1 0
2 *591:X 0.000126097
3 *60:14 0.000528026
4 *60:8 0.000654123
5 *60:8 *141:12 1.34995e-05
6 *60:14 *118:72 0.000428652
7 *60:14 *141:18 0
8 *60:14 *194:14 0.000187692
9 *60:14 *204:10 0.000417438
10 *5:13 *60:8 0.000191255
*RES
1 *591:X *60:8 41.0036 
2 *60:8 *60:14 28.1121 
3 *60:14 *592:B1 23 
*END

*D_NET *61 0.00434855
*CONN
*I *594:B I *D sky130_fd_sc_hd__xnor2_1
*I *593:Y O *D sky130_fd_sc_hd__nand2_1
*CAP
1 *594:B 0
2 *593:Y 0
3 *61:12 0.00112838
4 *61:6 0.00112838
5 *61:12 *64:10 0
6 *61:12 *70:10 0.000143166
7 *61:12 *71:10 0.000322451
8 *61:12 *174:14 1.51481e-05
9 *61:12 *174:28 0.00118108
10 *61:12 *201:28 0
11 *61:12 *202:20 0.000165231
12 *61:12 *203:8 0.000114092
13 *61:12 *205:27 6.12392e-05
14 *61:12 *205:39 8.9391e-05
15 *61:12 *217:10 0
*RES
1 *593:Y *61:6 38 
2 *61:6 *61:12 43.2336 
3 *61:12 *594:B 23 
*END

*D_NET *62 0.000308706
*CONN
*I *596:B I *D sky130_fd_sc_hd__and2_1
*I *595:X O *D sky130_fd_sc_hd__or2_1
*CAP
1 *596:B 4.62543e-05
2 *595:X 4.62543e-05
3 *596:B *720:A 7.48505e-05
4 *596:B *75:14 0.000141347
*RES
1 *595:X *596:B 47.5743 
*END

*D_NET *63 0.00149684
*CONN
*I *597:A I *D sky130_fd_sc_hd__clkbuf_1
*I *596:X O *D sky130_fd_sc_hd__and2_1
*CAP
1 *597:A 0
2 *596:X 0.000340038
3 *63:10 0.000340038
4 *63:10 *720:A 9.66668e-05
5 *63:10 *136:26 0.000127447
6 *63:10 *174:28 0.000592656
*RES
1 *596:X *63:10 46.99 
2 *63:10 *597:A 38 
*END

*D_NET *64 0.00170666
*CONN
*I *599:B I *D sky130_fd_sc_hd__xor2_1
*I *598:X O *D sky130_fd_sc_hd__and2b_1
*CAP
1 *599:B 0
2 *598:X 0.000421954
3 *64:10 0.000421954
4 *64:10 *598:B 0.000230056
5 *64:10 *162:20 0.000230056
6 *64:10 *202:8 0.000218677
7 *64:10 *206:25 0.000147535
8 *64:10 *217:10 3.64246e-05
9 *61:12 *64:10 0
*RES
1 *598:X *64:10 48.4193 