*SPEF "ieee 1481-1999"
*DESIGN "adder"
*DATE "08:19:31 Friday April 18, 2025"
*VENDOR "The OpenROAD Project"
*PROGRAM "OpenROAD"
*VERSION "b16bda7e82721d10566ff7e2b68f1ff0be9f9e38"
*DESIGN_FLOW "NAME_SCOPE LOCAL" "PIN_CAP NONE"
*DIVIDER /
*DELIMITER :
*BUS_DELIMITER []
*T_UNIT 1 NS
*C_UNIT 1 PF
*R_UNIT 1 OHM
*L_UNIT 1 HENRY

*NAME_MAP
*3 a1
*4 a10
*5 a11
*6 a12
*7 a13
*8 a14
*9 a15
*10 a16
*11 a2
*12 a3
*13 a4
*14 a5
*15 a6
*16 a7
*17 a8
*18 a9
*19 b1
*20 b10
*21 b11
*22 b12
*23 b13
*24 b14
*25 b15
*26 b16
*27 b2
*28 b3
*29 b4
*30 b5
*31 b6
*32 b7
*33 b8
*34 b9
*35 cin
*36 clk
*37 cout
*38 s1
*39 s10
*40 s11
*41 s12
*42 s13
*43 s14
*44 s15
*45 s16
*46 s2
*47 s3
*48 s4
*49 s5
*50 s6
*51 s7
*52 s8
*53 s9
*54 _000_
*55 _001_
*56 _002_
*57 _003_
*58 _004_
*59 _005_
*60 _006_
*61 _007_
*62 _008_
*63 _009_
*64 _010_
*65 _011_
*66 _012_
*67 _013_
*68 _014_
*69 _015_
*70 _016_
*71 _017_
*72 _018_
*73 _019_
*74 _020_
*75 _021_
*76 _022_
*77 _023_
*78 _024_
*79 _025_
*80 _026_
*81 _027_
*82 _028_
*83 _029_
*84 _030_
*85 _031_
*86 _032_
*87 _033_
*88 _034_
*89 _035_
*90 _036_
*91 _037_
*92 _038_
*93 _039_
*94 _040_
*95 _041_
*96 _042_
*97 _043_
*98 _044_
*99 _045_
*100 _046_
*101 _047_
*102 _048_
*103 _049_
*104 _050_
*105 _051_
*106 _052_
*107 _053_
*108 _054_
*109 _055_
*110 _056_
*111 _057_
*112 _058_
*113 _059_
*114 clknet_0_clk
*115 clknet_2_0__leaf_clk
*116 clknet_2_1__leaf_clk
*117 clknet_2_2__leaf_clk
*118 clknet_2_3__leaf_clk
*119 net1
*120 net10
*121 net11
*122 net12
*123 net13
*124 net14
*125 net15
*126 net16
*127 net17
*128 net18
*129 net19
*130 net2
*131 net20
*132 net21
*133 net22
*134 net23
*135 net24
*136 net25
*137 net26
*138 net27
*139 net28
*140 net29
*141 net3
*142 net30
*143 net31
*144 net32
*145 net33
*146 net34
*147 net35
*148 net36
*149 net37
*150 net38
*151 net39
*152 net4
*153 net40
*154 net41
*155 net42
*156 net43
*157 net44
*158 net45
*159 net46
*160 net47
*161 net48
*162 net49
*163 net5
*164 net50
*165 net51
*166 net52
*167 net53
*168 net54
*169 net6
*170 net7
*171 net8
*172 net9
*173 x1\.a
*174 x1\.b
*175 x1\.cin
*176 x1\.sum
*177 x11\.a
*178 x11\.b
*179 x11\.sum
*180 x12\.a
*181 x12\.b
*182 x12\.sum
*183 x13\.a
*184 x13\.b
*185 x13\.sum
*186 x14\.a
*187 x14\.b
*188 x14\.sum
*189 x16\.a
*190 x16\.b
*191 x16\.sum
*192 x17\.a
*193 x17\.b
*194 x17\.sum
*195 x18\.a
*196 x18\.b
*197 x18\.sum
*198 x19\.a
*199 x19\.b
*200 x19\.sum
*201 x2\.a
*202 x2\.b
*203 x2\.sum
*204 x20\.out
*205 x23\.A
*206 x23\.B
*207 x24\.A
*208 x24\.B
*209 x25\.A
*210 x25\.B
*211 x26\.A
*212 x26\.B
*213 x27\.A
*214 x27\.B
*215 x28\.A
*216 x28\.B
*217 x3\.sum
*218 x4\.sum
*219 x6\.sum
*220 x7\.sum
*221 x8\.sum
*222 x9\.sum
*223 FILLER_0_0_102
*224 FILLER_0_0_111
*225 FILLER_0_0_113
*226 FILLER_0_0_120
*227 FILLER_0_0_29
*228 FILLER_0_0_52
*229 FILLER_0_0_82
*230 FILLER_0_0_88
*231 FILLER_0_0_93
*232 FILLER_0_10_100
*233 FILLER_0_10_108
*234 FILLER_0_10_127
*235 FILLER_0_10_131
*236 FILLER_0_10_27
*237 FILLER_0_10_29
*238 FILLER_0_10_3
*239 FILLER_0_10_62
*240 FILLER_0_10_81
*241 FILLER_0_10_88
*242 FILLER_0_11_110
*243 FILLER_0_11_14
*244 FILLER_0_11_23
*245 FILLER_0_11_50
*246 FILLER_0_11_57
*247 FILLER_0_11_6
*248 FILLER_0_11_65
*249 FILLER_0_11_94
*250 FILLER_0_12_125
*251 FILLER_0_12_19
*252 FILLER_0_12_27
*253 FILLER_0_12_29
*254 FILLER_0_12_3
*255 FILLER_0_12_41
*256 FILLER_0_12_99
*257 FILLER_0_13_106
*258 FILLER_0_13_126
*259 FILLER_0_13_30
*260 FILLER_0_13_38
*261 FILLER_0_13_57
*262 FILLER_0_13_6
*263 FILLER_0_13_65
*264 FILLER_0_13_92
*265 FILLER_0_13_98
*266 FILLER_0_14_119
*267 FILLER_0_14_123
*268 FILLER_0_14_131
*269 FILLER_0_14_39
*270 FILLER_0_14_51
*271 FILLER_0_14_6
*272 FILLER_0_14_63
*273 FILLER_0_14_75
*274 FILLER_0_14_83
*275 FILLER_0_14_85
*276 FILLER_0_14_97
*277 FILLER_0_15_105
*278 FILLER_0_15_111
*279 FILLER_0_15_22
*280 FILLER_0_15_3
*281 FILLER_0_15_50
*282 FILLER_0_15_57
*283 FILLER_0_15_69
*284 FILLER_0_15_81
*285 FILLER_0_15_93
*286 FILLER_0_16_101
*287 FILLER_0_16_109
*288 FILLER_0_16_125
*289 FILLER_0_16_131
*290 FILLER_0_16_18
*291 FILLER_0_16_26
*292 FILLER_0_16_29
*293 FILLER_0_16_37
*294 FILLER_0_16_59
*295 FILLER_0_16_6
*296 FILLER_0_16_67
*297 FILLER_0_17_107
*298 FILLER_0_17_111
*299 FILLER_0_17_120
*300 FILLER_0_17_124
*301 FILLER_0_17_30
*302 FILLER_0_17_38
*303 FILLER_0_17_57
*304 FILLER_0_17_6
*305 FILLER_0_17_69
*306 FILLER_0_17_81
*307 FILLER_0_17_95
*308 FILLER_0_18_126
*309 FILLER_0_18_20
*310 FILLER_0_18_29
*311 FILLER_0_18_3
*312 FILLER_0_18_41
*313 FILLER_0_18_53
*314 FILLER_0_18_59
*315 FILLER_0_18_76
*316 FILLER_0_18_85
*317 FILLER_0_18_89
*318 FILLER_0_19_108
*319 FILLER_0_19_120
*320 FILLER_0_19_128
*321 FILLER_0_19_29
*322 FILLER_0_19_46
*323 FILLER_0_19_54
*324 FILLER_0_19_57
*325 FILLER_0_19_9
*326 FILLER_0_19_90
*327 FILLER_0_1_107
*328 FILLER_0_1_111
*329 FILLER_0_1_129
*330 FILLER_0_1_57
*331 FILLER_0_1_6
*332 FILLER_0_1_65
*333 FILLER_0_1_83
*334 FILLER_0_1_95
*335 FILLER_0_20_103
*336 FILLER_0_20_131
*337 FILLER_0_20_26
*338 FILLER_0_20_32
*339 FILLER_0_20_67
*340 FILLER_0_20_79
*341 FILLER_0_20_83
*342 FILLER_0_20_85
*343 FILLER_0_20_9
*344 FILLER_0_21_102
*345 FILLER_0_21_111
*346 FILLER_0_21_113
*347 FILLER_0_21_120
*348 FILLER_0_21_20
*349 FILLER_0_21_51
*350 FILLER_0_21_55
*351 FILLER_0_21_60
*352 FILLER_0_21_66
*353 FILLER_0_21_75
*354 FILLER_0_21_85
*355 FILLER_0_21_89
*356 FILLER_0_2_117
*357 FILLER_0_2_129
*358 FILLER_0_2_22
*359 FILLER_0_2_29
*360 FILLER_0_2_41
*361 FILLER_0_2_49
*362 FILLER_0_3_105
*363 FILLER_0_3_111
*364 FILLER_0_3_113
*365 FILLER_0_3_131
*366 FILLER_0_3_18
*367 FILLER_0_3_30
*368 FILLER_0_3_52
*369 FILLER_0_3_57
*370 FILLER_0_3_69
*371 FILLER_0_3_81
*372 FILLER_0_3_9
*373 FILLER_0_3_93
*374 FILLER_0_4_109
*375 FILLER_0_4_121
*376 FILLER_0_4_129
*377 FILLER_0_4_26
*378 FILLER_0_4_29
*379 FILLER_0_4_33
*380 FILLER_0_4_41
*381 FILLER_0_4_53
*382 FILLER_0_4_65
*383 FILLER_0_4_77
*384 FILLER_0_4_83
*385 FILLER_0_4_85
*386 FILLER_0_4_9
*387 FILLER_0_4_97
*388 FILLER_0_5_101
*389 FILLER_0_5_109
*390 FILLER_0_5_129
*391 FILLER_0_5_19
*392 FILLER_0_5_31
*393 FILLER_0_5_53
*394 FILLER_0_5_64
*395 FILLER_0_5_68
*396 FILLER_0_5_76
*397 FILLER_0_5_84
*398 FILLER_0_6_117
*399 FILLER_0_6_129
*400 FILLER_0_6_13
*401 FILLER_0_6_21
*402 FILLER_0_6_27
*403 FILLER_0_6_29
*404 FILLER_0_6_37
*405 FILLER_0_6_6
*406 FILLER_0_6_69
*407 FILLER_0_6_85
*408 FILLER_0_7_103
*409 FILLER_0_7_111
*410 FILLER_0_7_113
*411 FILLER_0_7_131
*412 FILLER_0_7_21
*413 FILLER_0_7_29
*414 FILLER_0_7_3
*415 FILLER_0_7_55
*416 FILLER_0_7_71
*417 FILLER_0_7_88
*418 FILLER_0_7_96
*419 FILLER_0_8_102
*420 FILLER_0_8_114
*421 FILLER_0_8_126
*422 FILLER_0_8_18
*423 FILLER_0_8_26
*424 FILLER_0_8_29
*425 FILLER_0_8_48
*426 FILLER_0_8_56
*427 FILLER_0_8_6
*428 FILLER_0_8_63
*429 FILLER_0_8_73
*430 FILLER_0_8_77
*431 FILLER_0_8_85
*432 FILLER_0_9_101
*433 FILLER_0_9_111
*434 FILLER_0_9_113
*435 FILLER_0_9_125
*436 FILLER_0_9_131
*437 FILLER_0_9_30
*438 FILLER_0_9_51
*439 FILLER_0_9_55
*440 FILLER_0_9_57
*441 FILLER_0_9_6
*442 FILLER_0_9_69
*443 FILLER_0_9_81
*444 FILLER_0_9_93
*445 PHY_EDGE_ROW_0_Left_22
*446 PHY_EDGE_ROW_0_Right_0
*447 PHY_EDGE_ROW_10_Left_32
*448 PHY_EDGE_ROW_10_Right_10
*449 PHY_EDGE_ROW_11_Left_33
*450 PHY_EDGE_ROW_11_Right_11
*451 PHY_EDGE_ROW_12_Left_34
*452 PHY_EDGE_ROW_12_Right_12
*453 PHY_EDGE_ROW_13_Left_35
*454 PHY_EDGE_ROW_13_Right_13
*455 PHY_EDGE_ROW_14_Left_36
*456 PHY_EDGE_ROW_14_Right_14
*457 PHY_EDGE_ROW_15_Left_37
*458 PHY_EDGE_ROW_15_Right_15
*459 PHY_EDGE_ROW_16_Left_38
*460 PHY_EDGE_ROW_16_Right_16
*461 PHY_EDGE_ROW_17_Left_39
*462 PHY_EDGE_ROW_17_Right_17
*463 PHY_EDGE_ROW_18_Left_40
*464 PHY_EDGE_ROW_18_Right_18
*465 PHY_EDGE_ROW_19_Left_41
*466 PHY_EDGE_ROW_19_Right_19
*467 PHY_EDGE_ROW_1_Left_23
*468 PHY_EDGE_ROW_1_Right_1
*469 PHY_EDGE_ROW_20_Left_42
*470 PHY_EDGE_ROW_20_Right_20
*471 PHY_EDGE_ROW_21_Left_43
*472 PHY_EDGE_ROW_21_Right_21
*473 PHY_EDGE_ROW_2_Left_24
*474 PHY_EDGE_ROW_2_Right_2
*475 PHY_EDGE_ROW_3_Left_25
*476 PHY_EDGE_ROW_3_Right_3
*477 PHY_EDGE_ROW_4_Left_26
*478 PHY_EDGE_ROW_4_Right_4
*479 PHY_EDGE_ROW_5_Left_27
*480 PHY_EDGE_ROW_5_Right_5
*481 PHY_EDGE_ROW_6_Left_28
*482 PHY_EDGE_ROW_6_Right_6
*483 PHY_EDGE_ROW_7_Left_29
*484 PHY_EDGE_ROW_7_Right_7
*485 PHY_EDGE_ROW_8_Left_30
*486 PHY_EDGE_ROW_8_Right_8
*487 PHY_EDGE_ROW_9_Left_31
*488 PHY_EDGE_ROW_9_Right_9
*489 TAP_TAPCELL_ROW_0_44
*490 TAP_TAPCELL_ROW_0_45
*491 TAP_TAPCELL_ROW_0_46
*492 TAP_TAPCELL_ROW_0_47
*493 TAP_TAPCELL_ROW_10_66
*494 TAP_TAPCELL_ROW_10_67
*495 TAP_TAPCELL_ROW_11_68
*496 TAP_TAPCELL_ROW_11_69
*497 TAP_TAPCELL_ROW_12_70
*498 TAP_TAPCELL_ROW_12_71
*499 TAP_TAPCELL_ROW_13_72
*500 TAP_TAPCELL_ROW_13_73
*501 TAP_TAPCELL_ROW_14_74
*502 TAP_TAPCELL_ROW_14_75
*503 TAP_TAPCELL_ROW_15_76
*504 TAP_TAPCELL_ROW_15_77
*505 TAP_TAPCELL_ROW_16_78
*506 TAP_TAPCELL_ROW_16_79
*507 TAP_TAPCELL_ROW_17_80
*508 TAP_TAPCELL_ROW_17_81
*509 TAP_TAPCELL_ROW_18_82
*510 TAP_TAPCELL_ROW_18_83
*511 TAP_TAPCELL_ROW_19_84
*512 TAP_TAPCELL_ROW_19_85
*513 TAP_TAPCELL_ROW_1_48
*514 TAP_TAPCELL_ROW_1_49
*515 TAP_TAPCELL_ROW_20_86
*516 TAP_TAPCELL_ROW_20_87
*517 TAP_TAPCELL_ROW_21_88
*518 TAP_TAPCELL_ROW_21_89
*519 TAP_TAPCELL_ROW_21_90
*520 TAP_TAPCELL_ROW_21_91
*521 TAP_TAPCELL_ROW_2_50
*522 TAP_TAPCELL_ROW_2_51
*523 TAP_TAPCELL_ROW_3_52
*524 TAP_TAPCELL_ROW_3_53
*525 TAP_TAPCELL_ROW_4_54
*526 TAP_TAPCELL_ROW_4_55
*527 TAP_TAPCELL_ROW_5_56
*528 TAP_TAPCELL_ROW_5_57
*529 TAP_TAPCELL_ROW_6_58
*530 TAP_TAPCELL_ROW_6_59
*531 TAP_TAPCELL_ROW_7_60
*532 TAP_TAPCELL_ROW_7_61
*533 TAP_TAPCELL_ROW_8_62
*534 TAP_TAPCELL_ROW_8_63
*535 TAP_TAPCELL_ROW_9_64
*536 TAP_TAPCELL_ROW_9_65
*537 _060_
*538 _061_
*539 _062_
*540 _063_
*541 _064_
*542 _065_
*543 _066_
*544 _067_
*545 _068_
*546 _069_
*547 _070_
*548 _071_
*549 _072_
*550 _073_
*551 _074_
*552 _075_
*553 _076_
*554 _077_
*555 _078_
*556 _079_
*557 _080_
*558 _081_
*559 _082_
*560 _083_
*561 _084_
*562 _085_
*563 _086_
*564 _087_
*565 _088_
*566 _089_
*567 _090_
*568 _091_
*569 _092_
*570 _093_
*571 _094_
*572 _095_
*573 _096_
*574 _097_
*575 _098_
*576 _099_
*577 _100_
*578 _101_
*579 _102_
*580 _103_
*581 _104_
*582 _105_
*583 _106_
*584 _107_
*585 _108_
*586 _109_
*587 _110_
*588 _111_
*589 _112_
*590 _113_
*591 _114_
*592 _115_
*593 _116_
*594 _117_
*595 _118_
*596 _119_
*597 _120_
*598 _121_
*599 _122_
*600 _123_
*601 _124_
*602 _125_
*603 _126_
*604 _127_
*605 _128_
*606 _129_
*607 _130_
*608 _131_
*609 _132_
*610 _133_
*611 _134_
*612 _135_
*613 _136_
*614 _137_
*615 _138_
*616 _139_
*617 _140_
*618 _141_
*619 _142_
*620 _143_
*621 _144_
*622 _145_
*623 _146_
*624 _147_
*625 _148_
*626 _149_
*627 _150_
*628 _151_
*629 _152_
*630 _153_
*631 _154_
*632 _155_
*633 _156_
*634 _157_
*635 _158_
*636 _159_
*637 _160_
*638 _161_
*639 _162_
*640 _163_
*641 _164_
*642 _165_
*643 _166_
*644 _167_
*645 _168_
*646 _169_
*647 _170_
*648 _171_
*649 _172_
*650 _173_
*651 _174_
*652 _175_
*653 _176_
*654 _177_
*655 _178_
*656 _179_
*657 _180_
*658 _181_
*659 _182_
*660 _183_
*661 _184_
*662 _185_
*663 _186_
*664 clkbuf_0_clk
*665 clkbuf_2_0__f_clk
*666 clkbuf_2_1__f_clk
*667 clkbuf_2_2__f_clk
*668 clkbuf_2_3__f_clk
*669 clkload0
*670 clkload1
*671 clkload2
*672 input1
*673 input10
*674 input11
*675 input12
*676 input13
*677 input14
*678 input15
*679 input16
*680 input17
*681 input18
*682 input19
*683 input2
*684 input20
*685 input21
*686 input22
*687 input23
*688 input24
*689 input25
*690 input26
*691 input27
*692 input28
*693 input29
*694 input3
*695 input30
*696 input31
*697 input32
*698 input33
*699 input4
*700 input5
*701 input6
*702 input7
*703 input8
*704 input9
*705 output34
*706 output35
*707 output36
*708 output37
*709 output38
*710 output39
*711 output40
*712 output41
*713 output42
*714 output43
*715 output44
*716 output45
*717 output46
*718 output47
*719 output48
*720 output49
*721 output50
*722 rebuffer1
*723 rebuffer2
*724 rebuffer3
*725 rebuffer4

*PORTS
a1 I
a10 I
a11 I
a12 I
a13 I
a14 I
a15 I
a16 I
a2 I
a3 I
a4 I
a5 I
a6 I
a7 I
a8 I
a9 I
b1 I
b10 I
b11 I
b12 I
b13 I
b14 I
b15 I
b16 I
b2 I
b3 I
b4 I
b5 I
b6 I
b7 I
b8 I
b9 I
cin I
clk I
cout O
s1 O
s10 O
s11 O
s12 O
s13 O
s14 O
s15 O
s16 O
s2 O
s3 O
s4 O
s5 O
s6 O
s7 O
s8 O
s9 O

*D_NET *3 0.00179291
*CONN
*P a1 I
*I *672:A I *D sky130_fd_sc_hd__clkbuf_1
*CAP
1 a1 0.000844238
2 *672:A 0.000844238
3 *672:A cout 0
4 *672:A s15 6.9741e-05
5 *672:A *704:A 0
6 *672:A *205:12 3.4689e-05
*RES
1 a1 *672:A 30.4071 
*END

*D_NET *4 0.00128104
*CONN
*P a10 I
*I *683:A I *D sky130_fd_sc_hd__clkbuf_1
*CAP
1 a10 0.000565821
2 *683:A 0.000565821
3 *683:A *632:D 6.43749e-05
4 *683:A *634:D 8.50266e-05
5 *683:A *679:A 0
6 *683:A *694:A 0
*RES
1 a10 *683:A 25.3357 
*END

*D_NET *5 0.00142115
*CONN
*P a11 I
*I *694:A I *D sky130_fd_sc_hd__clkbuf_1
*CAP
1 a11 0.000591156
2 *694:A 0.000591156
3 *694:A *592:B1 0.000186765
4 *694:A *634:D 5.20751e-05
5 *694:A *699:A 0
6 *683:A *694:A 0
*RES
1 a11 *694:A 26.1571 
*END

*D_NET *6 0.00127769
*CONN
*P a12 I
*I *699:A I *D sky130_fd_sc_hd__clkbuf_1
*CAP
1 a12 0.000566458
2 *699:A 0.000566458
3 *699:A *591:A_N 0.000144773
4 *699:A *700:A 0
5 *694:A *699:A 0
*RES
1 a12 *699:A 25.2107 
*END

*D_NET *7 0.00118001
*CONN
*P a13 I
*I *700:A I *D sky130_fd_sc_hd__clkbuf_1
*CAP
1 a13 0.000590005
2 *700:A 0.000590005
3 *700:A *640:D 0
4 *699:A *700:A 0
*RES
1 a13 *700:A 25.0857 
*END

*D_NET *8 0.00117102
*CONN
*P a14 I
*I *701:A I *D sky130_fd_sc_hd__clkbuf_1
*CAP
1 a14 0.000556126
2 *701:A 0.000556126
3 *701:A *640:D 0
4 *701:A *644:D 5.87659e-05
5 *701:A *702:A 0
*RES
1 a14 *701:A 25.0857 
*END

*D_NET *9 0.00122228
*CONN
*P a15 I
*I *702:A I *D sky130_fd_sc_hd__clkbuf_1
*CAP
1 a15 0.000596938
2 *702:A 0.000596938
3 *702:A *644:D 2.84026e-05
4 *702:A *703:A 0
5 *701:A *702:A 0
*RES
1 a15 *702:A 25.3357 
*END

*D_NET *10 0.00115687
*CONN
*P a16 I
*I *703:A I *D sky130_fd_sc_hd__clkbuf_1
*CAP
1 a16 0.000578437
2 *703:A 0.000578437
3 *702:A *703:A 0
*RES
1 a16 *703:A 25.0857 
*END

*D_NET *11 0.0022708
*CONN
*P a2 I
*I *704:A I *D sky130_fd_sc_hd__clkbuf_1
*CAP
1 a2 0.000805972
2 *704:A 0.000805972
3 *704:A cout 0
4 *704:A *614:CLK 0.000656963
5 *704:A *614:D 1.89507e-06
6 *704:A *673:A 0
7 *672:A *704:A 0
*RES
1 a2 *704:A 30.675 
*END

*D_NET *12 0.00271466
*CONN
*P a3 I
*I *673:A I *D sky130_fd_sc_hd__clkbuf_1
*CAP
1 a3 0.00107421
2 *673:A 0.00107421
3 *673:A *614:D 0
4 *673:A *661:CLK 0.000143583
5 *673:A *661:D 0.000259132
6 *673:A *705:A 0.000163518
7 *673:A *173:14 0
8 *704:A *673:A 0
*RES
1 a3 *673:A 35.8179 
*END

*D_NET *13 0.00113323
*CONN
*P a4 I
*I *674:A I *D sky130_fd_sc_hd__clkbuf_1
*CAP
1 a4 0.000537044
2 *674:A 0.000537044
3 *674:A s16 4.19624e-06
4 *674:A *614:CLK 5.49489e-05
5 *674:A *616:D 0
6 *674:A *675:A 0
*RES
1 a4 *674:A 24.2643 
*END

*D_NET *14 0.00216243
*CONN
*P a5 I
*I *675:A I *D sky130_fd_sc_hd__clkbuf_1
*CAP
1 a5 0.000852204
2 *675:A 0.000852204
3 *675:A *624:D 9.90431e-05
4 *675:A *207:12 0.000358977
5 *674:A *675:A 0
*RES
1 a5 *675:A 30.1393 
*END

*D_NET *15 0.0011521
*CONN
*P a6 I
*I *676:A I *D sky130_fd_sc_hd__clkbuf_1
*CAP
1 a6 0.00057605
2 *676:A 0.00057605
3 *676:A *677:A 0
*RES
1 a6 *676:A 25.0857 
*END

*D_NET *16 0.00134179
*CONN
*P a7 I
*I *677:A I *D sky130_fd_sc_hd__clkbuf_1
*CAP
1 a7 0.00064505
2 *677:A 0.00064505
3 *677:A *626:D 5.16862e-05
4 *677:A *678:A 0
5 *676:A *677:A 0
*RES
1 a7 *677:A 26.3179 
*END

*D_NET *17 0.00118203
*CONN
*P a8 I
*I *678:A I *D sky130_fd_sc_hd__clkbuf_1
*CAP
1 a8 0.000591016
2 *678:A 0.000591016
3 *677:A *678:A 0
*RES
1 a8 *678:A 25.0857 
*END

*D_NET *18 0.00113013
*CONN
*P a9 I
*I *679:A I *D sky130_fd_sc_hd__clkbuf_1
*CAP
1 a9 0.000565067
2 *679:A 0.000565067
3 *679:A *632:D 0
4 *683:A *679:A 0
*RES
1 a9 *679:A 25.0857 
*END

*D_NET *19 0.00204697
*CONN
*P b1 I
*I *680:A I *D sky130_fd_sc_hd__clkbuf_1
*CAP
1 b1 0.000996514
2 *680:A 0.000996514
3 *680:A s2 2.85234e-05
4 *680:A s3 2.5419e-05
5 *680:A s4 0
6 *680:A *615:CLK 0
7 *680:A *689:A 0
*RES
1 b1 *680:A 32.8357 
*END

*D_NET *20 0.00115224
*CONN
*P b10 I
*I *681:A I *D sky130_fd_sc_hd__clkbuf_1
*CAP
1 b10 0.000534339
2 *681:A 0.000534339
3 *681:A *633:D 8.35608e-05
4 *681:A *682:A 0
5 *681:A *697:A 0
*RES
1 b10 *681:A 24.3 
*END

*D_NET *21 0.00108039
*CONN
*P b11 I
*I *682:A I *D sky130_fd_sc_hd__clkbuf_1
*CAP
1 b11 0.00052307
2 *682:A 0.00052307
3 *682:A *635:D 3.42509e-05
4 *682:A *684:A 0
5 *681:A *682:A 0
*RES
1 b11 *682:A 23.7286 
*END

*D_NET *22 0.000845334
*CONN
*P b12 I
*I *684:A I *D sky130_fd_sc_hd__clkbuf_1
*CAP
1 b12 0.000422667
2 *684:A 0.000422667
3 *684:A *685:A 0
4 *682:A *684:A 0
*RES
1 b12 *684:A 21.8357 
*END

*D_NET *23 0.00084331
*CONN
*P b13 I
*I *685:A I *D sky130_fd_sc_hd__clkbuf_1
*CAP
1 b13 0.000421655
2 *685:A 0.000421655
3 *685:A *686:A 0
4 *684:A *685:A 0
*RES
1 b13 *685:A 21.8357 
*END

*D_NET *24 0.000946543
*CONN
*P b14 I
*I *686:A I *D sky130_fd_sc_hd__clkbuf_1
*CAP
1 b14 0.000464114
2 *686:A 0.000464114
3 *686:A *641:D 1.83136e-05
4 *686:A *687:A 0
5 *685:A *686:A 0
*RES
1 b14 *686:A 22.6571 
*END

*D_NET *25 0.000975817
*CONN
*P b15 I
*I *687:A I *D sky130_fd_sc_hd__clkbuf_1
*CAP
1 b15 0.000486063
2 *687:A 0.000486063
3 *687:A *643:D 3.69047e-06
4 *687:A *688:A 0
5 *686:A *687:A 0
*RES
1 b15 *687:A 22.9071 
*END

*D_NET *26 0.000957197
*CONN
*P b16 I
*I *688:A I *D sky130_fd_sc_hd__clkbuf_1
*CAP
1 b16 0.000478598
2 *688:A 0.000478598
3 *687:A *688:A 0
*RES
1 b16 *688:A 22.6571 
*END

*D_NET *27 0.00113891
*CONN
*P b2 I
*I *689:A I *D sky130_fd_sc_hd__clkbuf_1
*CAP
1 b2 0.000513308
2 *689:A 0.000513308
3 *689:A *617:D 1.32552e-05
4 *689:A *690:A 9.90367e-05
5 *680:A *689:A 0
*RES
1 b2 *689:A 23.6036 
*END

*D_NET *28 0.00151671
*CONN
*P b3 I
*I *690:A I *D sky130_fd_sc_hd__clkbuf_1
*CAP
1 b3 0.00059995
2 *690:A 0.00059995
3 *690:A s1 0.00012398
4 *690:A *617:D 2.27416e-05
5 *690:A *619:D 5.34321e-05
6 *690:A *647:D 1.76204e-05
7 *690:A *691:A 0
8 *689:A *690:A 9.90367e-05
*RES
1 b3 *690:A 26.1929 
*END

*D_NET *29 0.000853972
*CONN
*P b4 I
*I *691:A I *D sky130_fd_sc_hd__clkbuf_1
*CAP
1 b4 0.000426986
2 *691:A 0.000426986
3 *691:A s1 0
4 *691:A *692:A 0
5 *690:A *691:A 0
*RES
1 b4 *691:A 21.8357 
*END

*D_NET *30 0.00112298
*CONN
*P b5 I
*I *692:A I *D sky130_fd_sc_hd__clkbuf_1
*CAP
1 b5 0.000511971
2 *692:A 0.000511971
3 *692:A *623:D 9.90367e-05
4 *692:A *693:A 0
5 *691:A *692:A 0
*RES
1 b5 *692:A 23.7286 
*END

*D_NET *31 0.00116665
*CONN
*P b6 I
*I *693:A I *D sky130_fd_sc_hd__clkbuf_1
*CAP
1 b6 0.000533832
2 *693:A 0.000533832
3 *693:A *625:D 2.07878e-05
4 *693:A *695:A 0
5 *693:A *210:14 7.8195e-05
6 *692:A *693:A 0
*RES
1 b6 *693:A 24.3 
*END

*D_NET *32 0.00133244
*CONN
*P b7 I
*I *695:A I *D sky130_fd_sc_hd__clkbuf_1
*CAP
1 b7 0.000501152
2 *695:A 0.000501152
3 *695:A *629:CLK 0.000271449
4 *695:A *696:A 0
5 *695:A *210:14 5.86881e-05
6 *693:A *695:A 0
*RES
1 b7 *695:A 24.0143 
*END

*D_NET *33 0.00100639
*CONN
*P b8 I
*I *696:A I *D sky130_fd_sc_hd__clkbuf_1
*CAP
1 b8 0.000447457
2 *696:A 0.000447457
3 *696:A *629:CLK 9.90367e-05
4 *696:A *629:D 1.24368e-05
5 *696:A *697:A 0
6 *696:A *210:14 0
7 *695:A *696:A 0
*RES
1 b8 *696:A 22.2464 
*END

*D_NET *34 0.00142742
*CONN
*P b9 I
*I *697:A I *D sky130_fd_sc_hd__clkbuf_1
*CAP
1 b9 0.000493162
2 *697:A 0.000493162
3 *697:A *629:CLK 0.000144773
4 *697:A *629:D 0.000261448
5 *697:A *631:D 3.48705e-05
6 *681:A *697:A 0
7 *696:A *697:A 0
*RES
1 b9 *697:A 24.8357 
*END

*D_NET *35 0.000617624
*CONN
*P cin I
*I *698:A I *D sky130_fd_sc_hd__buf_1
*CAP
1 cin 0.000303002
2 *698:A 0.000303002
3 *698:A *145:14 1.16198e-05
*RES
1 cin *698:A 19.1056 
*END

*D_NET *36 0.00804375
*CONN
*P clk I
*I *664:A I *D sky130_fd_sc_hd__clkbuf_16
*CAP
1 clk 0.00400064
2 *664:A 0.00400064
3 *664:A *571:A1 0
4 *664:A *604:A 4.24642e-05
*RES
1 clk *664:A 32.7508 
*END

*D_NET *37 0.00177929
*CONN
*P cout O
*I *705:X O *D sky130_fd_sc_hd__buf_1
*CAP
1 cout 0.000740416
2 *705:X 0.000740416
3 cout s16 0
4 cout *614:D 8.0917e-05
5 cout *711:A 5.74309e-05
6 cout *712:A 0.00013871
7 cout *205:12 2.14001e-05
8 *672:A cout 0
9 *704:A cout 0
*RES
1 *705:X cout 28.2485 
*END

*D_NET *38 0.00209718
*CONN
*P s1 O
*I *706:X O *D sky130_fd_sc_hd__buf_1
*CAP
1 s1 0.000899713
2 *706:X 0.000899713
3 s1 s2 0
4 s1 *647:D 0
5 s1 *706:A 9.52602e-05
6 s1 *206:14 7.85137e-05
7 *690:A s1 0.00012398
8 *691:A s1 0
*RES
1 *706:X s1 26.5616 
*END

*D_NET *39 0.000696651
*CONN
*P s10 O
*I *707:X O *D sky130_fd_sc_hd__buf_1
*CAP
1 s10 0.000345158
2 *707:X 0.000345158
3 s10 s11 6.33508e-06
4 s10 s9 0
5 s10 *201:12 0
*RES
1 *707:X s10 21.0874 
*END

*D_NET *40 0.000681564
*CONN
*P s11 O
*I *708:X O *D sky130_fd_sc_hd__buf_1
*CAP
1 s11 0.000333308
2 *708:X 0.000333308
3 s11 s12 8.6123e-06
4 s10 s11 6.33508e-06
*RES
1 *708:X s11 20.7838 
*END

*D_NET *41 0.00066664
*CONN
*P s12 O
*I *709:X O *D sky130_fd_sc_hd__buf_1
*CAP
1 s12 0.000271669
2 *709:X 0.000271669
3 s12 s13 0
4 s12 *201:12 0.00011469
5 s11 s12 8.6123e-06
*RES
1 *709:X s12 19.3371 
*END

*D_NET *42 0.000688578
*CONN
*P s13 O
*I *710:X O *D sky130_fd_sc_hd__buf_1
*CAP
1 s13 0.000339983
2 *710:X 0.000339983
3 s13 s14 8.6123e-06
4 s12 s13 0
*RES
1 *710:X s13 20.7838 
*END

*D_NET *43 0.000604899
*CONN
*P s14 O
*I *711:X O *D sky130_fd_sc_hd__buf_1
*CAP
1 s14 0.000269552
2 *711:X 0.000269552
3 s14 s15 0
4 s14 *711:A 5.71833e-05
5 s13 s14 8.6123e-06
*RES
1 *711:X s14 19.3371 
*END

*D_NET *44 0.000702067
*CONN
*P s15 O
*I *712:X O *D sky130_fd_sc_hd__buf_1
*CAP
1 s15 0.000311857
2 *712:X 0.000311857
3 s15 s16 8.6123e-06
4 s14 s15 0
5 *672:A s15 6.9741e-05
*RES
1 *712:X s15 20.7838 
*END

*D_NET *45 0.00279763
*CONN
*P s16 O
*I *713:X O *D sky130_fd_sc_hd__buf_1
*CAP
1 s16 0.00131671
2 *713:X 0.00131671
3 s16 *616:D 0
4 s16 *116:78 0.000151408
5 cout s16 0
6 s15 s16 8.6123e-06
7 *674:A s16 4.19624e-06
*RES
1 *713:X s16 21.818 
*END

*D_NET *46 0.00146165
*CONN
*P s2 O
*I *714:X O *D sky130_fd_sc_hd__buf_1
*CAP
1 s2 0.000523464
2 *714:X 0.000523464
3 s2 s3 0
4 s2 *615:CLK 0.000199743
5 s2 *615:D 7.80092e-05
6 s2 *617:D 3.41504e-05
7 s2 *647:CLK 0
8 s2 *715:A 7.42974e-05
9 s1 s2 0
10 *680:A s2 2.85234e-05
*RES
1 *714:X s2 25.3907 
*END

*D_NET *47 0.000626304
*CONN
*P s3 O
*I *715:X O *D sky130_fd_sc_hd__buf_1
*CAP
1 s3 0.000266606
2 *715:X 0.000266606
3 s3 s4 0
4 s3 *615:CLK 6.76734e-05
5 s2 s3 0
6 *680:A s3 2.5419e-05
*RES
1 *715:X s3 19.1936 
*END

*D_NET *48 0.000939016
*CONN
*P s4 O
*I *716:X O *D sky130_fd_sc_hd__buf_1
*CAP
1 s4 0.000446822
2 *716:X 0.000446822
3 s4 s5 1.68403e-05
4 s4 *714:A 0
5 s4 *717:A 2.85321e-05
6 s3 s4 0
7 *680:A s4 0
*RES
1 *716:X s4 22.3196 
*END

*D_NET *49 0.00059614
*CONN
*P s5 O
*I *717:X O *D sky130_fd_sc_hd__buf_1
*CAP
1 s5 0.000280787
2 *717:X 0.000280787
3 s5 s6 0
4 s5 *714:A 1.77247e-05
5 s4 s5 1.68403e-05
*RES
1 *717:X s5 19.1936 
*END

*D_NET *50 0.00049423
*CONN
*P s6 O
*I *718:X O *D sky130_fd_sc_hd__buf_1
*CAP
1 s6 0.000247115
2 *718:X 0.000247115
3 s6 s7 0
4 s5 s6 0
*RES
1 *718:X s6 19.6024 
*END

*D_NET *51 0.000682111
*CONN
*P s7 O
*I *719:X O *D sky130_fd_sc_hd__buf_1
*CAP
1 s7 0.000334801
2 *719:X 0.000334801
3 s7 s8 1.25084e-05
4 s6 s7 0
*RES
1 *719:X s7 20.7838 
*END

*D_NET *52 0.000590822
*CONN
*P s8 O
*I *720:X O *D sky130_fd_sc_hd__buf_1
*CAP
1 s8 0.000289157
2 *720:X 0.000289157
3 s8 s9 0
4 s7 s8 1.25084e-05
*RES
1 *720:X s8 20.4803 
*END

*D_NET *53 0.000484129
*CONN
*P s9 O
*I *721:X O *D sky130_fd_sc_hd__buf_1
*CAP
1 s9 0.000234611
2 *721:X 0.000234611
3 s9 *205:12 1.49084e-05
4 s10 s9 0
5 s8 s9 0
*RES
1 *721:X s9 18.4264 
*END

*D_NET *54 0.000595725
*CONN
*I *586:B1 I *D sky130_fd_sc_hd__a21oi_2
*I *585:X O *D sky130_fd_sc_hd__and2b_1
*CAP
1 *586:B1 0.00020971
2 *585:X 0.00020971
3 *586:B1 *585:A_N 5.65955e-05
4 *586:B1 *55:10 0
5 *586:B1 *192:14 0.000119709
*RES
1 *585:X *586:B1 31.1357 
*END

*D_NET *55 0.00279786
*CONN
*I *587:B I *D sky130_fd_sc_hd__xnor2_1
*I *588:A_N I *D sky130_fd_sc_hd__and2b_1
*I *586:Y O *D sky130_fd_sc_hd__a21oi_2
*CAP
1 *587:B 0.000255412
2 *588:A_N 0.00035184
3 *586:Y 0.000339961
4 *55:10 0.000947213
5 *587:B *56:12 0.000239295
6 *587:B *145:14 0
7 *588:A_N *588:B 7.32733e-05
8 *588:A_N *589:B1 0.000398996
9 *588:A_N *640:D 1.76204e-05
10 *55:10 *586:A1 5.30637e-06
11 *55:10 *56:12 0.000168939
12 *55:10 *113:12 0
13 *55:10 *145:14 0
14 *55:10 *192:14 0
15 *55:10 *193:12 0
16 *55:10 *196:18 0
17 *586:B1 *55:10 0
*RES
1 *586:Y *55:10 19.6214 
2 *55:10 *588:A_N 20.9071 
3 *55:10 *587:B 18.8357 
*END

*D_NET *56 0.00201747
*CONN
*I *589:A2 I *D sky130_fd_sc_hd__a21oi_2
*I *603:B I *D sky130_fd_sc_hd__xor2_1
*I *587:Y O *D sky130_fd_sc_hd__xnor2_1
*CAP
1 *589:A2 0.000224654
2 *603:B 8.55033e-05
3 *587:Y 0.000224415
4 *56:12 0.000534572
5 *589:A2 *589:A1 8.84129e-05
6 *589:A2 *589:B1 0.000225988
7 *603:B *589:A1 1.64621e-05
8 *603:B *589:B1 9.83388e-05
9 *603:B *196:18 5.65955e-05
10 *56:12 *589:B1 5.42961e-05
11 *56:12 *640:D 0
12 *56:12 *196:18 0
13 *56:12 *197:12 0
14 *587:B *56:12 0.000239295
15 *55:10 *56:12 0.000168939
*RES
1 *587:Y *56:12 23.5143 
2 *56:12 *603:B 11.0679 
3 *56:12 *589:A2 13.9429 
*END

*D_NET *57 0.0019594
*CONN
*I *589:B1 I *D sky130_fd_sc_hd__a21oi_2
*I *588:X O *D sky130_fd_sc_hd__and2b_1
*CAP
1 *589:B1 0.000435768
2 *588:X 0.000435768
3 *589:B1 *589:A1 0.000310249
4 *589:B1 *197:12 0
5 *588:A_N *589:B1 0.000398996
6 *589:A2 *589:B1 0.000225988
7 *603:B *589:B1 9.83388e-05
8 *56:12 *589:B1 5.42961e-05
*RES
1 *588:X *589:B1 36.0643 
*END

*D_NET *58 0.00387869
*CONN
*I *591:A_N I *D sky130_fd_sc_hd__and2b_1
*I *590:B I *D sky130_fd_sc_hd__xnor2_1
*I *589:Y O *D sky130_fd_sc_hd__a21oi_2
*CAP
1 *591:A_N 0.000341616
2 *590:B 0
3 *589:Y 0.000860471
4 *58:10 0.00120209
5 *591:A_N *590:A 0.000303155
6 *591:A_N *591:B 0.000364131
7 *591:A_N *163:12 0
8 *58:10 *589:A1 0.000396151
9 *58:10 *590:A 3.4867e-05
10 *58:10 *612:A 0
11 *58:10 *186:8 0
12 *58:10 *194:14 0.000142844
13 *58:10 *196:18 6.93048e-05
14 *58:10 *197:12 1.92905e-05
15 *699:A *591:A_N 0.000144773
*RES
1 *589:Y *58:10 25.7286 
2 *58:10 *590:B 13.8 
3 *58:10 *591:A_N 22.675 
*END

*D_NET *59 0.000727113
*CONN
*I *612:B I *D sky130_fd_sc_hd__xor2_1
*I *592:A2 I *D sky130_fd_sc_hd__a21o_1
*I *590:Y O *D sky130_fd_sc_hd__xnor2_1
*CAP
1 *612:B 0
2 *592:A2 0.000125746
3 *590:Y 8.17555e-05
4 *59:8 0.000207501
5 *592:A2 *590:A 0
6 *592:A2 *592:A1 5.52238e-05
7 *592:A2 *612:A 0.00014209
8 *592:A2 *194:14 5.71472e-05
9 *592:A2 *199:10 3.17148e-05
10 *59:8 *612:A 2.59355e-05
*RES
1 *590:Y *59:8 10.675 
2 *59:8 *592:A2 21.3893 
3 *59:8 *612:B 9.3 
*END

*D_NET *60 0.00230206
*CONN
*I *592:B1 I *D sky130_fd_sc_hd__a21o_1
*I *591:X O *D sky130_fd_sc_hd__and2b_1
*CAP
1 *592:B1 0.000576446
2 *591:X 0.000576446
3 *592:B1 *634:D 1.34631e-05
4 *592:B1 *663:D 0.000380166
5 *592:B1 *118:72 0.000384529
6 *592:B1 *194:14 0.000184246
7 *694:A *592:B1 0.000186765
*RES
1 *591:X *592:B1 41.4929 
*END

*D_NET *61 0.00380477
*CONN
*I *594:B I *D sky130_fd_sc_hd__xnor2_1
*I *593:Y O *D sky130_fd_sc_hd__nand2_1
*CAP
1 *594:B 0
2 *593:Y 0.000937118
3 *61:12 0.000937118
4 *61:12 *549:A 0
5 *61:12 *552:A 8.2377e-05
6 *61:12 *595:A 0.000148376
7 *61:12 *599:B 0
8 *61:12 *648:D 0.000103267
9 *61:12 *649:D 0
10 *61:12 *70:12 0.000127939
11 *61:12 *71:16 0.000291199
12 *61:12 *174:16 1.46689e-05
13 *61:12 *174:32 0.00110754
14 *61:12 *205:27 5.51649e-05
*RES
1 *593:Y *61:12 42.6393 
2 *61:12 *594:B 9.3 
*END

*D_NET *62 0.000283773
*CONN
*I *596:B I *D sky130_fd_sc_hd__and2_1
*I *595:X O *D sky130_fd_sc_hd__or2_1
*CAP
1 *596:B 3.60834e-05
2 *595:X 3.60834e-05
3 *596:B *720:A 7.22686e-05
4 *596:B *75:14 0.000139338
*RES
1 *595:X *596:B 19.9571 
*END

*D_NET *63 0.00133584
*CONN
*I *597:A I *D sky130_fd_sc_hd__clkbuf_1
*I *596:X O *D sky130_fd_sc_hd__and2_1
*CAP
1 *597:A 0.000293212
2 *596:X 0.000293212
3 *597:A *617:D 0.000122291
4 *597:A *720:A 9.58689e-05
5 *597:A *174:32 0.000531261
*RES
1 *596:X *597:A 35.35 
*END

*D_NET *64 0.00155945
*CONN
*I *599:B I *D sky130_fd_sc_hd__xor2_1
*I *598:X O *D sky130_fd_sc_hd__and2b_1
*CAP
1 *599:B 0.000368046
2 *598:X 0.000368046
3 *599:B *598:B 0.000226073
4 *599:B *649:D 3.27461e-05
5 *599:B *162:20 0.000226073
6 *599:B *202:10 0.000196314
7 *599:B *206:25 0.000142154
8 *61:12 *599:B 0
*RES
1 *598:X *599:B 36.5821 
*END

*D_NET *65 0.000535093
*CONN
*I *609:B I *D sky130_fd_sc_hd__xnor2_1
*I *608:X O *D sky130_fd_sc_hd__or2b_1
*CAP
1 *609:B 0.000213479
2 *608:X 0.000213479
3 *609:B *208:25 0.000108135
*RES
1 *608:X *609:B 31.6714 
*END

*D_NET *66 0.000488955
*CONN
*I *583:A1 I *D sky130_fd_sc_hd__o21a_1
*I *537:Y O *D sky130_fd_sc_hd__inv_2
*CAP
1 *583:A1 9.16399e-05
2 *537:Y 9.16399e-05
3 *583:A1 *583:A2 2.84109e-05
4 *583:A1 *583:B1 0.000125736
5 *583:A1 *601:A 0.000151528
*RES
1 *537:Y *583:A1 30.1893 
*END

*D_NET *67 0.00243042
*CONN
*I *571:A1 I *D sky130_fd_sc_hd__o21a_1
*I *538:Y O *D sky130_fd_sc_hd__inv_2
*CAP
1 *571:A1 0.000836108
2 *538:Y 0.000836108
3 *571:A1 *538:A 3.69047e-06
4 *571:A1 *570:B 7.20217e-06
5 *571:A1 *571:B1 0.000656724
6 *571:A1 *604:A 0
7 *571:A1 *656:D 5.23735e-05
8 *571:A1 *100:8 8.43535e-06
9 *571:A1 *150:8 2.37253e-05
10 *571:A1 *180:14 6.05161e-06
11 *664:A *571:A1 0
*RES
1 *538:Y *571:A1 42.5286 
*END

*D_NET *68 0.000866702
*CONN
*I *541:A1 I *D sky130_fd_sc_hd__a21bo_1
*I *593:B I *D sky130_fd_sc_hd__nand2_1
*I *539:X O *D sky130_fd_sc_hd__or2_4
*CAP
1 *541:A1 3.45622e-05
2 *593:B 0.000194469
3 *539:X 6.53004e-05
4 *68:8 0.000294332
5 *593:B *550:B 0
6 *593:B *593:A 2.78539e-05
7 *593:B *707:A 0.000185203
8 *593:B *174:32 5.49489e-05
9 *68:8 *173:14 1.00332e-05
*RES
1 *539:X *68:8 14.9875 
2 *68:8 *593:B 18.1304 
3 *68:8 *541:A1 14.6839 
*END

*D_NET *69 0.00113954
*CONN
*I *541:B1_N I *D sky130_fd_sc_hd__a21bo_1
*I *593:A I *D sky130_fd_sc_hd__nand2_1
*I *540:Y O *D sky130_fd_sc_hd__nand2_1
*CAP
1 *541:B1_N 0
2 *593:A 0.000213699
3 *540:Y 0.000197432
4 *69:12 0.000411131
5 *593:A *550:B 0.000121172
6 *593:A *174:32 9.74665e-05
7 *69:12 *550:A 3.09893e-05
8 *69:12 *550:B 3.18747e-05
9 *69:12 *707:A 7.92229e-06
10 *593:B *593:A 2.78539e-05
*RES
1 *540:Y *69:12 21.1036 
2 *69:12 *593:A 13.5679 
3 *69:12 *541:B1_N 9.3 
*END

*D_NET *70 0.000588528
*CONN