* NGSPICE file created from rca8b.ext - technology: sky130A

.subckt rca8b a8 b8 DGND cout DVDD a7 b7 a6 b6 b5 a5 a4 b4 a3 b3 a2 b2 a1 b1 cin s8
+ s7 s6 s5 s4 s3 s2 s1
X0 DGND a1 a_252_n200# DGND sky130_fd_pr__nfet_01v8 ad=0.126 pd=1.44 as=0.105 ps=0.92 w=0.42 l=0.15
X1 DVDD a_n331_n1509# a_n398_n1626# DVDD sky130_fd_pr__pfet_01v8 ad=0.105 pd=0.92 as=0.105 ps=0.92 w=0.42 l=0.15
X2 a_n494_n905# a2 DVDD DVDD sky130_fd_pr__pfet_01v8 ad=0.252 pd=2.28 as=0.252 ps=2.28 w=0.84 l=0.15
X3 a_n354_n3081# b4 DVDD DVDD sky130_fd_pr__pfet_01v8 ad=0.252 pd=2.28 as=0.252 ps=2.28 w=0.84 l=0.15
X4 a_n138_n2990# a_n354_n3081# DVDD DVDD sky130_fd_pr__pfet_01v8 ad=0.21 pd=1.34 as=0.21 ps=1.34 w=0.84 l=0.15
X5 a_n398_n538# cin DVDD DVDD sky130_fd_pr__pfet_01v8 ad=0.105 pd=0.92 as=0.126 ps=1.44 w=0.42 l=0.15
X6 a_n201_n1421# a2 DVDD DVDD sky130_fd_pr__pfet_01v8 ad=0.252 pd=2.28 as=0.252 ps=2.28 w=0.84 l=0.15
X7 a_1698_n2728# a_1698_n3816# a_1828_n2728# DVDD sky130_fd_pr__pfet_01v8 ad=0.21 pd=1.34 as=0.21 ps=1.34 w=0.84 l=0.15
X8 DVDD a_1572_n2170# a_1828_n2728# DVDD sky130_fd_pr__pfet_01v8 ad=0.21 pd=1.34 as=0.21 ps=1.34 w=0.84 l=0.15
X9 a_2868_344# cout s8 DVDD sky130_fd_pr__pfet_01v8 ad=0.105 pd=0.92 as=0.105 ps=0.92 w=0.42 l=0.15
X10 s5 a_n268_n3277# a_2608_n2920# DVDD sky130_fd_pr__pfet_01v8 ad=0.105 pd=0.92 as=0.105 ps=0.92 w=0.42 l=0.15
X11 s8 a_1698_n1640# a_2608_6# DGND sky130_fd_pr__nfet_01v8 ad=0.105 pd=0.92 as=0.105 ps=0.92 w=0.42 l=0.15
X12 a_1698_n1640# b7 a_1568_n1640# DVDD sky130_fd_pr__pfet_01v8 ad=0.21 pd=1.34 as=0.21 ps=1.34 w=0.84 l=0.15
X13 a_n138_n1101# a_n494_n905# DGND DGND sky130_fd_pr__nfet_01v8 ad=0.252 pd=2.28 as=0.21 ps=1.34 w=0.84 l=0.15
X14 s6 a_1698_n3816# a_2608_n1832# DVDD sky130_fd_pr__pfet_01v8 ad=0.105 pd=0.92 as=0.105 ps=0.92 w=0.42 l=0.15
X15 a_252_n3464# a_n331_n3685# a_122_n3464# DGND sky130_fd_pr__nfet_01v8 ad=0.105 pd=0.92 as=0.105 ps=0.92 w=0.42 l=0.15
X16 DVDD a_1518_n346# a_1828_n552# DVDD sky130_fd_pr__pfet_01v8 ad=0.21 pd=1.34 as=0.21 ps=1.34 w=0.84 l=0.15
X17 DVDD a_1518_n346# a_1568_n552# DVDD sky130_fd_pr__pfet_01v8 ad=0.252 pd=2.28 as=0.21 ps=1.34 w=0.84 l=0.15
X18 cout a_1572_6# a_1568_n552# DVDD sky130_fd_pr__pfet_01v8 ad=0.21 pd=1.34 as=0.21 ps=1.34 w=0.84 l=0.15
X19 a_n138_n814# a_n494_n905# DVDD DVDD sky130_fd_pr__pfet_01v8 ad=0.21 pd=1.34 as=0.21 ps=1.34 w=0.84 l=0.15
X20 a_122_n1626# a_n462_n1511# s2 DVDD sky130_fd_pr__pfet_01v8 ad=0.105 pd=0.92 as=0.105 ps=0.92 w=0.42 l=0.15
X21 a_1828_n3816# a5 DVDD DVDD sky130_fd_pr__pfet_01v8 ad=0.21 pd=1.34 as=0.21 ps=1.34 w=0.84 l=0.15
X22 DVDD b8 a_1980_6# DVDD sky130_fd_pr__pfet_01v8 ad=0.252 pd=2.28 as=0.252 ps=2.28 w=0.84 l=0.15
X23 cout a_1698_n1640# a_2388_n265# DGND sky130_fd_pr__nfet_01v8 ad=0.21 pd=1.34 as=0.21 ps=1.34 w=0.84 l=0.15
X24 a_n398_n2376# a_n462_n2599# DGND DGND sky130_fd_pr__nfet_01v8 ad=0.105 pd=0.92 as=0.126 ps=1.44 w=0.42 l=0.15
X25 DGND a5 a_2388_n3529# DGND sky130_fd_pr__nfet_01v8 ad=0.21 pd=1.34 as=0.252 ps=2.28 w=0.84 l=0.15
X26 a_n398_n2990# a_n494_n3081# DVDD DVDD sky130_fd_pr__pfet_01v8 ad=0.21 pd=1.34 as=0.252 ps=2.28 w=0.84 l=0.15
X27 a_1828_n2728# a_1572_n2170# DVDD DVDD sky130_fd_pr__pfet_01v8 ad=0.21 pd=1.34 as=0.21 ps=1.34 w=0.84 l=0.15
X28 s8 a_1698_n1640# a_2608_344# DVDD sky130_fd_pr__pfet_01v8 ad=0.105 pd=0.92 as=0.105 ps=0.92 w=0.42 l=0.15
X29 a_n398_n1288# a_n201_n1421# DGND DGND sky130_fd_pr__nfet_01v8 ad=0.105 pd=0.92 as=0.105 ps=0.92 w=0.42 l=0.15
X30 DGND a3 a_n138_n2189# DGND sky130_fd_pr__nfet_01v8 ad=0.21 pd=1.34 as=0.21 ps=1.34 w=0.84 l=0.15
X31 DGND a_1518_n2522# a_2388_n2441# DGND sky130_fd_pr__nfet_01v8 ad=0.21 pd=1.34 as=0.252 ps=2.28 w=0.84 l=0.15
X32 a_n398_n3802# a_n462_n3687# DVDD DVDD sky130_fd_pr__pfet_01v8 ad=0.105 pd=0.92 as=0.126 ps=1.44 w=0.42 l=0.15
X33 DGND a_n354_n3081# a_n138_n3277# DGND sky130_fd_pr__nfet_01v8 ad=0.21 pd=1.34 as=0.21 ps=1.34 w=0.84 l=0.15
X34 a_1568_n2728# a_1572_n2170# a_1698_n2728# DVDD sky130_fd_pr__pfet_01v8 ad=0.21 pd=1.34 as=0.21 ps=1.34 w=0.84 l=0.15
X35 a_2868_6# cout s8 DGND sky130_fd_pr__nfet_01v8 ad=0.105 pd=0.92 as=0.105 ps=0.92 w=0.42 l=0.15
X36 DGND a_1698_n3816# a_2868_n2170# DGND sky130_fd_pr__nfet_01v8 ad=0.126 pd=1.44 as=0.105 ps=0.92 w=0.42 l=0.15
X37 DGND b8 a_1980_6# DGND sky130_fd_pr__nfet_01v8 ad=0.126 pd=1.44 as=0.126 ps=1.44 w=0.42 l=0.15
X38 a_n462_n3687# a_n462_n2599# a_n138_n1902# DVDD sky130_fd_pr__pfet_01v8 ad=0.21 pd=1.34 as=0.21 ps=1.34 w=0.84 l=0.15
X39 a_n398_n2714# a3 DVDD DVDD sky130_fd_pr__pfet_01v8 ad=0.105 pd=0.92 as=0.105 ps=0.92 w=0.42 l=0.15
X40 DGND a_1698_n2728# a_2868_n1082# DGND sky130_fd_pr__nfet_01v8 ad=0.126 pd=1.44 as=0.105 ps=0.92 w=0.42 l=0.15
X41 a_1828_n3816# b5 DVDD DVDD sky130_fd_pr__pfet_01v8 ad=0.21 pd=1.34 as=0.21 ps=1.34 w=0.84 l=0.15
X42 DVDD a_n494_n3081# a_n138_n2990# DVDD sky130_fd_pr__pfet_01v8 ad=0.21 pd=1.34 as=0.21 ps=1.34 w=0.84 l=0.15
X43 DVDD b8 a_1572_6# DVDD sky130_fd_pr__pfet_01v8 ad=0.252 pd=2.28 as=0.252 ps=2.28 w=0.84 l=0.15
X44 a_252_n200# b1 a_122_n200# DGND sky130_fd_pr__nfet_01v8 ad=0.105 pd=0.92 as=0.105 ps=0.92 w=0.42 l=0.15
X45 a_1698_n3816# a_n268_n3277# a_2388_n3529# DGND sky130_fd_pr__nfet_01v8 ad=0.21 pd=1.34 as=0.21 ps=1.34 w=0.84 l=0.15
X46 a_1568_n2728# a_1518_n2522# DVDD DVDD sky130_fd_pr__pfet_01v8 ad=0.21 pd=1.34 as=0.252 ps=2.28 w=0.84 l=0.15
X47 a_1828_n2728# a_1518_n2522# DVDD DVDD sky130_fd_pr__pfet_01v8 ad=0.21 pd=1.34 as=0.21 ps=1.34 w=0.84 l=0.15
X48 a_n138_n1902# a_n462_n2599# a_n462_n3687# DVDD sky130_fd_pr__pfet_01v8 ad=0.21 pd=1.34 as=0.21 ps=1.34 w=0.84 l=0.15
X49 a_1698_n2728# a_1698_n3816# a_2388_n2441# DGND sky130_fd_pr__nfet_01v8 ad=0.21 pd=1.34 as=0.21 ps=1.34 w=0.84 l=0.15
X50 s6 a_1698_n3816# a_2608_n2170# DGND sky130_fd_pr__nfet_01v8 ad=0.105 pd=0.92 as=0.105 ps=0.92 w=0.42 l=0.15
X51 a_n268_n3277# a_n354_n3081# a_n398_n3277# DGND sky130_fd_pr__nfet_01v8 ad=0.21 pd=1.34 as=0.21 ps=1.34 w=0.84 l=0.15
X52 DGND a_2184_6# a_2868_6# DGND sky130_fd_pr__nfet_01v8 ad=0.105 pd=0.92 as=0.105 ps=0.92 w=0.42 l=0.15
X53 a_n398_n1101# a_n494_n905# DGND DGND sky130_fd_pr__nfet_01v8 ad=0.21 pd=1.34 as=0.252 ps=2.28 w=0.84 l=0.15
X54 s7 a_1698_n2728# a_2608_n1082# DGND sky130_fd_pr__nfet_01v8 ad=0.105 pd=0.92 as=0.105 ps=0.92 w=0.42 l=0.15
X55 DVDD a8 a_2184_6# DVDD sky130_fd_pr__pfet_01v8 ad=0.252 pd=2.28 as=0.252 ps=2.28 w=0.84 l=0.15
X56 a_122_n200# cin s1 DGND sky130_fd_pr__nfet_01v8 ad=0.105 pd=0.92 as=0.105 ps=0.92 w=0.42 l=0.15
X57 a_1828_n552# a_1518_n346# DVDD DVDD sky130_fd_pr__pfet_01v8 ad=0.21 pd=1.34 as=0.21 ps=1.34 w=0.84 l=0.15
X58 s2 a_n462_n2599# a_n398_n1288# DGND sky130_fd_pr__nfet_01v8 ad=0.105 pd=0.92 as=0.105 ps=0.92 w=0.42 l=0.15
X59 a_1568_n552# a_1518_n346# DVDD DVDD sky130_fd_pr__pfet_01v8 ad=0.21 pd=1.34 as=0.252 ps=2.28 w=0.84 l=0.15
X60 DVDD a_n494_n905# a_n138_n814# DVDD sky130_fd_pr__pfet_01v8 ad=0.21 pd=1.34 as=0.21 ps=1.34 w=0.84 l=0.15
X61 a_3128_n3529# b5 a_1698_n3816# DGND sky130_fd_pr__nfet_01v8 ad=0.21 pd=1.34 as=0.21 ps=1.34 w=0.84 l=0.15
X62 a_2868_n2920# a_1698_n3816# s5 DVDD sky130_fd_pr__pfet_01v8 ad=0.105 pd=0.92 as=0.105 ps=0.92 w=0.42 l=0.15
X63 a_2868_6# a_1980_6# DGND DGND sky130_fd_pr__nfet_01v8 ad=0.105 pd=0.92 as=0.105 ps=0.92 w=0.42 l=0.15
X64 a_2388_n265# a_1572_6# DGND DGND sky130_fd_pr__nfet_01v8 ad=0.21 pd=1.34 as=0.21 ps=1.34 w=0.84 l=0.15
X65 a_252_n1626# a_n331_n1509# a_122_n1626# DVDD sky130_fd_pr__pfet_01v8 ad=0.105 pd=0.92 as=0.105 ps=0.92 w=0.42 l=0.15
X66 a_1828_n1640# a_1698_n2728# a_1698_n1640# DVDD sky130_fd_pr__pfet_01v8 ad=0.21 pd=1.34 as=0.21 ps=1.34 w=0.84 l=0.15
X67 DGND b6 a_1980_n2170# DGND sky130_fd_pr__nfet_01v8 ad=0.126 pd=1.44 as=0.126 ps=1.44 w=0.42 l=0.15
X68 a_3128_n2441# a_1572_n2170# a_1698_n2728# DGND sky130_fd_pr__nfet_01v8 ad=0.21 pd=1.34 as=0.21 ps=1.34 w=0.84 l=0.15
X69 a_n331_n3685# b4 DGND DGND sky130_fd_pr__nfet_01v8 ad=0.126 pd=1.44 as=0.126 ps=1.44 w=0.42 l=0.15
X70 s3 a_n462_n3687# a_n398_n2714# DVDD sky130_fd_pr__pfet_01v8 ad=0.105 pd=0.92 as=0.105 ps=0.92 w=0.42 l=0.15
X71 a_2868_n1832# a_1698_n2728# s6 DVDD sky130_fd_pr__pfet_01v8 ad=0.105 pd=0.92 as=0.105 ps=0.92 w=0.42 l=0.15
X72 DGND a_n201_n3597# a_252_n3464# DGND sky130_fd_pr__nfet_01v8 ad=0.126 pd=1.44 as=0.105 ps=0.92 w=0.42 l=0.15
X73 a_n138_n3277# a_n354_n3081# DGND DGND sky130_fd_pr__nfet_01v8 ad=0.21 pd=1.34 as=0.21 ps=1.34 w=0.84 l=0.15
X74 DGND a8 a_2184_6# DGND sky130_fd_pr__nfet_01v8 ad=0.126 pd=1.44 as=0.126 ps=1.44 w=0.42 l=0.15
X75 cout a_1698_n1640# a_1828_n552# DVDD sky130_fd_pr__pfet_01v8 ad=0.21 pd=1.34 as=0.21 ps=1.34 w=0.84 l=0.15
X76 DVDD a8 a_1518_n346# DVDD sky130_fd_pr__pfet_01v8 ad=0.252 pd=2.28 as=0.252 ps=2.28 w=0.84 l=0.15
X77 a_n138_n814# a_n354_n905# DVDD DVDD sky130_fd_pr__pfet_01v8 ad=0.21 pd=1.34 as=0.21 ps=1.34 w=0.84 l=0.15
X78 DVDD a5 a_1828_n3816# DVDD sky130_fd_pr__pfet_01v8 ad=0.21 pd=1.34 as=0.21 ps=1.34 w=0.84 l=0.15
X79 a_n138_n814# a_n354_n905# DVDD DVDD sky130_fd_pr__pfet_01v8 ad=0.21 pd=1.34 as=0.21 ps=1.34 w=0.84 l=0.15
X80 DVDD b3 a_n138_n1902# DVDD sky130_fd_pr__pfet_01v8 ad=0.21 pd=1.34 as=0.21 ps=1.34 w=0.84 l=0.15
X81 a_2388_n3529# a5 DGND DGND sky130_fd_pr__nfet_01v8 ad=0.21 pd=1.34 as=0.21 ps=1.34 w=0.84 l=0.15
X82 DVDD a_1518_n2522# a_1828_n2728# DVDD sky130_fd_pr__pfet_01v8 ad=0.21 pd=1.34 as=0.21 ps=1.34 w=0.84 l=0.15
X83 a_3128_n265# a_1572_6# cout DGND sky130_fd_pr__nfet_01v8 ad=0.21 pd=1.34 as=0.21 ps=1.34 w=0.84 l=0.15
X84 DGND a_n331_n1509# a_n398_n1288# DGND sky130_fd_pr__nfet_01v8 ad=0.105 pd=0.92 as=0.105 ps=0.92 w=0.42 l=0.15
X85 a_n494_n905# a2 DGND DGND sky130_fd_pr__nfet_01v8 ad=0.126 pd=1.44 as=0.126 ps=1.44 w=0.42 l=0.15
X86 a_n138_n2189# a3 DGND DGND sky130_fd_pr__nfet_01v8 ad=0.252 pd=2.28 as=0.21 ps=1.34 w=0.84 l=0.15
X87 a_2388_n2441# a_1518_n2522# DGND DGND sky130_fd_pr__nfet_01v8 ad=0.21 pd=1.34 as=0.21 ps=1.34 w=0.84 l=0.15
X88 a_n354_n3081# b4 DGND DGND sky130_fd_pr__nfet_01v8 ad=0.126 pd=1.44 as=0.126 ps=1.44 w=0.42 l=0.15
X89 a_n398_n200# cin DGND DGND sky130_fd_pr__nfet_01v8 ad=0.105 pd=0.92 as=0.126 ps=1.44 w=0.42 l=0.15
X90 a_n201_n1421# a2 DGND DGND sky130_fd_pr__nfet_01v8 ad=0.126 pd=1.44 as=0.126 ps=1.44 w=0.42 l=0.15
X91 a_2608_n744# b7 a_2478_n744# DVDD sky130_fd_pr__pfet_01v8 ad=0.105 pd=0.92 as=0.105 ps=0.92 w=0.42 l=0.15
X92 a_n398_n1902# b3 a_n462_n3687# DVDD sky130_fd_pr__pfet_01v8 ad=0.21 pd=1.34 as=0.21 ps=1.34 w=0.84 l=0.15
X93 DVDD b3 a_n398_n2714# DVDD sky130_fd_pr__pfet_01v8 ad=0.105 pd=0.92 as=0.105 ps=0.92 w=0.42 l=0.15
X94 DVDD b5 a_1828_n3816# DVDD sky130_fd_pr__pfet_01v8 ad=0.21 pd=1.34 as=0.21 ps=1.34 w=0.84 l=0.15
X95 a_1698_n3816# a_n268_n3277# a_1828_n3816# DVDD sky130_fd_pr__pfet_01v8 ad=0.21 pd=1.34 as=0.21 ps=1.34 w=0.84 l=0.15
X96 a_1698_n2728# a_1572_n2170# a_1568_n2728# DVDD sky130_fd_pr__pfet_01v8 ad=0.21 pd=1.34 as=0.21 ps=1.34 w=0.84 l=0.15
X97 a_122_n1288# a_n462_n1511# s2 DGND sky130_fd_pr__nfet_01v8 ad=0.105 pd=0.92 as=0.105 ps=0.92 w=0.42 l=0.15
X98 DVDD a7 a_1568_n1640# DVDD sky130_fd_pr__pfet_01v8 ad=0.252 pd=2.28 as=0.21 ps=1.34 w=0.84 l=0.15
X99 a_n462_n3687# b3 a_n398_n1902# DVDD sky130_fd_pr__pfet_01v8 ad=0.21 pd=1.34 as=0.21 ps=1.34 w=0.84 l=0.15
X100 a_2478_n2920# a5 DVDD DVDD sky130_fd_pr__pfet_01v8 ad=0.105 pd=0.92 as=0.126 ps=1.44 w=0.42 l=0.15
X101 a_n398_n814# a_n494_n905# DVDD DVDD sky130_fd_pr__pfet_01v8 ad=0.21 pd=1.34 as=0.252 ps=2.28 w=0.84 l=0.15
X102 DGND b6 a_1572_n2170# DGND sky130_fd_pr__nfet_01v8 ad=0.126 pd=1.44 as=0.126 ps=1.44 w=0.42 l=0.15
X103 a_2868_n2170# a_1698_n2728# s6 DGND sky130_fd_pr__nfet_01v8 ad=0.105 pd=0.92 as=0.105 ps=0.92 w=0.42 l=0.15
X104 a_n268_n3277# a_n462_n3687# a_n138_n2990# DVDD sky130_fd_pr__pfet_01v8 ad=0.21 pd=1.34 as=0.21 ps=1.34 w=0.84 l=0.15
X105 a_122_n2714# a_n462_n2599# s3 DVDD sky130_fd_pr__pfet_01v8 ad=0.105 pd=0.92 as=0.105 ps=0.92 w=0.42 l=0.15
X106 a_2478_n1832# a_2184_n2170# DVDD DVDD sky130_fd_pr__pfet_01v8 ad=0.105 pd=0.92 as=0.126 ps=1.44 w=0.42 l=0.15
X107 a_2478_6# a_2184_6# DGND DGND sky130_fd_pr__nfet_01v8 ad=0.105 pd=0.92 as=0.126 ps=1.44 w=0.42 l=0.15
X108 DGND a_1572_6# a_2388_n265# DGND sky130_fd_pr__nfet_01v8 ad=0.21 pd=1.34 as=0.21 ps=1.34 w=0.84 l=0.15
X109 a_2868_n1082# a_1698_n1640# s7 DGND sky130_fd_pr__nfet_01v8 ad=0.105 pd=0.92 as=0.105 ps=0.92 w=0.42 l=0.15
X110 a_n398_n3464# a_n462_n3687# DGND DGND sky130_fd_pr__nfet_01v8 ad=0.105 pd=0.92 as=0.126 ps=1.44 w=0.42 l=0.15
X111 a_1828_n3816# b5 DVDD DVDD sky130_fd_pr__pfet_01v8 ad=0.21 pd=1.34 as=0.21 ps=1.34 w=0.84 l=0.15
X112 a_1568_n3816# b5 a_1698_n3816# DVDD sky130_fd_pr__pfet_01v8 ad=0.21 pd=1.34 as=0.21 ps=1.34 w=0.84 l=0.15
X113 DGND a_n494_n3081# a_n138_n3277# DGND sky130_fd_pr__nfet_01v8 ad=0.21 pd=1.34 as=0.21 ps=1.34 w=0.84 l=0.15
X114 a_n138_n13# a1 DGND DGND sky130_fd_pr__nfet_01v8 ad=0.252 pd=2.28 as=0.21 ps=1.34 w=0.84 l=0.15
X115 a_1828_n552# a_1572_6# DVDD DVDD sky130_fd_pr__pfet_01v8 ad=0.21 pd=1.34 as=0.21 ps=1.34 w=0.84 l=0.15
X116 DVDD b7 a_1828_n1640# DVDD sky130_fd_pr__pfet_01v8 ad=0.21 pd=1.34 as=0.21 ps=1.34 w=0.84 l=0.15
X117 a_n398_n2376# a3 DGND DGND sky130_fd_pr__nfet_01v8 ad=0.105 pd=0.92 as=0.105 ps=0.92 w=0.42 l=0.15
X118 a_n138_n2990# a_n462_n3687# a_n268_n3277# DVDD sky130_fd_pr__pfet_01v8 ad=0.21 pd=1.34 as=0.21 ps=1.34 w=0.84 l=0.15
X119 DVDD a_n354_n905# a_n138_n814# DVDD sky130_fd_pr__pfet_01v8 ad=0.21 pd=1.34 as=0.21 ps=1.34 w=0.84 l=0.15
X120 a_n331_n1509# b2 DVDD DVDD sky130_fd_pr__pfet_01v8 ad=0.252 pd=2.28 as=0.252 ps=2.28 w=0.84 l=0.15
X121 a_n138_n1902# b3 DVDD DVDD sky130_fd_pr__pfet_01v8 ad=0.21 pd=1.34 as=0.21 ps=1.34 w=0.84 l=0.15
X122 DVDD a6 a_2184_n2170# DVDD sky130_fd_pr__pfet_01v8 ad=0.252 pd=2.28 as=0.252 ps=2.28 w=0.84 l=0.15
X123 DGND a_n268_n3277# a_2868_n3258# DGND sky130_fd_pr__nfet_01v8 ad=0.126 pd=1.44 as=0.105 ps=0.92 w=0.42 l=0.15
X124 DVDD a5 a_2868_n2920# DVDD sky130_fd_pr__pfet_01v8 ad=0.105 pd=0.92 as=0.105 ps=0.92 w=0.42 l=0.15
X125 DVDD a_n201_n1421# a_252_n1626# DVDD sky130_fd_pr__pfet_01v8 ad=0.126 pd=1.44 as=0.105 ps=0.92 w=0.42 l=0.15
X126 a_n398_n3802# a_n201_n3597# DVDD DVDD sky130_fd_pr__pfet_01v8 ad=0.105 pd=0.92 as=0.105 ps=0.92 w=0.42 l=0.15
X127 DVDD b1 a_n398_n538# DVDD sky130_fd_pr__pfet_01v8 ad=0.105 pd=0.92 as=0.105 ps=0.92 w=0.42 l=0.15
X128 DVDD a_2184_n2170# a_2868_n1832# DVDD sky130_fd_pr__pfet_01v8 ad=0.105 pd=0.92 as=0.105 ps=0.92 w=0.42 l=0.15
X129 a_n398_n2189# a3 DGND DGND sky130_fd_pr__nfet_01v8 ad=0.21 pd=1.34 as=0.252 ps=2.28 w=0.84 l=0.15
X130 DVDD a1 a_n138_274# DVDD sky130_fd_pr__pfet_01v8 ad=0.21 pd=1.34 as=0.21 ps=1.34 w=0.84 l=0.15
X131 DVDD a_1698_n2728# a_2868_n744# DVDD sky130_fd_pr__pfet_01v8 ad=0.126 pd=1.44 as=0.105 ps=0.92 w=0.42 l=0.15
X132 a_n138_n1902# a3 DVDD DVDD sky130_fd_pr__pfet_01v8 ad=0.21 pd=1.34 as=0.21 ps=1.34 w=0.84 l=0.15
X133 a_1568_n3816# a5 DVDD DVDD sky130_fd_pr__pfet_01v8 ad=0.21 pd=1.34 as=0.252 ps=2.28 w=0.84 l=0.15
X134 a_2478_n744# a7 DVDD DVDD sky130_fd_pr__pfet_01v8 ad=0.105 pd=0.92 as=0.126 ps=1.44 w=0.42 l=0.15
X135 a_1828_n3816# a5 DVDD DVDD sky130_fd_pr__pfet_01v8 ad=0.21 pd=1.34 as=0.21 ps=1.34 w=0.84 l=0.15
X136 a_2608_6# a_1980_6# a_2478_6# DGND sky130_fd_pr__nfet_01v8 ad=0.105 pd=0.92 as=0.105 ps=0.92 w=0.42 l=0.15
X137 a_n354_n905# b2 DVDD DVDD sky130_fd_pr__pfet_01v8 ad=0.252 pd=2.28 as=0.252 ps=2.28 w=0.84 l=0.15
X138 DGND a1 a_n138_n13# DGND sky130_fd_pr__nfet_01v8 ad=0.21 pd=1.34 as=0.21 ps=1.34 w=0.84 l=0.15
X139 a_1568_n552# a_1572_6# cout DVDD sky130_fd_pr__pfet_01v8 ad=0.21 pd=1.34 as=0.21 ps=1.34 w=0.84 l=0.15
X140 s5 a_n268_n3277# a_2608_n3258# DGND sky130_fd_pr__nfet_01v8 ad=0.105 pd=0.92 as=0.105 ps=0.92 w=0.42 l=0.15
X141 DGND a7 a_3128_n1353# DGND sky130_fd_pr__nfet_01v8 ad=0.252 pd=2.28 as=0.21 ps=1.34 w=0.84 l=0.15
X142 a_2478_n2170# a_2184_n2170# DGND DGND sky130_fd_pr__nfet_01v8 ad=0.105 pd=0.92 as=0.126 ps=1.44 w=0.42 l=0.15
X143 a_2868_n2920# b5 DVDD DVDD sky130_fd_pr__pfet_01v8 ad=0.105 pd=0.92 as=0.105 ps=0.92 w=0.42 l=0.15
X144 a_n138_274# b1 DVDD DVDD sky130_fd_pr__pfet_01v8 ad=0.21 pd=1.34 as=0.21 ps=1.34 w=0.84 l=0.15
X145 a_2478_n1082# a7 DGND DGND sky130_fd_pr__nfet_01v8 ad=0.105 pd=0.92 as=0.126 ps=1.44 w=0.42 l=0.15
X146 DVDD a3 a_n398_n1902# DVDD sky130_fd_pr__pfet_01v8 ad=0.252 pd=2.28 as=0.21 ps=1.34 w=0.84 l=0.15
X147 a_2868_n1832# a_1980_n2170# DVDD DVDD sky130_fd_pr__pfet_01v8 ad=0.105 pd=0.92 as=0.105 ps=0.92 w=0.42 l=0.15
X148 a_n138_274# a1 DVDD DVDD sky130_fd_pr__pfet_01v8 ad=0.21 pd=1.34 as=0.21 ps=1.34 w=0.84 l=0.15
X149 a_n138_n1101# a_n462_n1511# a_n462_n2599# DGND sky130_fd_pr__nfet_01v8 ad=0.21 pd=1.34 as=0.21 ps=1.34 w=0.84 l=0.15
X150 a_252_n1288# a_n331_n1509# a_122_n1288# DGND sky130_fd_pr__nfet_01v8 ad=0.105 pd=0.92 as=0.105 ps=0.92 w=0.42 l=0.15
X151 s3 a_n462_n3687# a_n398_n2376# DGND sky130_fd_pr__nfet_01v8 ad=0.105 pd=0.92 as=0.105 ps=0.92 w=0.42 l=0.15
X152 DVDD a_n354_n3081# a_n138_n2990# DVDD sky130_fd_pr__pfet_01v8 ad=0.21 pd=1.34 as=0.21 ps=1.34 w=0.84 l=0.15
X153 a_1828_n1640# a7 DVDD DVDD sky130_fd_pr__pfet_01v8 ad=0.21 pd=1.34 as=0.21 ps=1.34 w=0.84 l=0.15
X154 s4 a_n268_n3277# a_n398_n3802# DVDD sky130_fd_pr__pfet_01v8 ad=0.105 pd=0.92 as=0.105 ps=0.92 w=0.42 l=0.15
X155 a_1828_n2728# a_1698_n3816# a_1698_n2728# DVDD sky130_fd_pr__pfet_01v8 ad=0.21 pd=1.34 as=0.21 ps=1.34 w=0.84 l=0.15
X156 a_252_n2714# b3 a_122_n2714# DVDD sky130_fd_pr__pfet_01v8 ad=0.105 pd=0.92 as=0.105 ps=0.92 w=0.42 l=0.15
X157 DGND b7 a_2388_n1353# DGND sky130_fd_pr__nfet_01v8 ad=0.21 pd=1.34 as=0.21 ps=1.34 w=0.84 l=0.15
X158 s1 a_n462_n1511# a_n398_n538# DVDD sky130_fd_pr__pfet_01v8 ad=0.105 pd=0.92 as=0.105 ps=0.92 w=0.42 l=0.15
X159 DVDD a6 a_1518_n2522# DVDD sky130_fd_pr__pfet_01v8 ad=0.252 pd=2.28 as=0.252 ps=2.28 w=0.84 l=0.15
X160 a_2608_n2920# b5 a_2478_n2920# DVDD sky130_fd_pr__pfet_01v8 ad=0.105 pd=0.92 as=0.105 ps=0.92 w=0.42 l=0.15
X161 DVDD a_1572_6# a_1828_n552# DVDD sky130_fd_pr__pfet_01v8 ad=0.21 pd=1.34 as=0.21 ps=1.34 w=0.84 l=0.15
X162 DGND a_2184_n2170# a_2868_n2170# DGND sky130_fd_pr__nfet_01v8 ad=0.105 pd=0.92 as=0.105 ps=0.92 w=0.42 l=0.15
X163 a_n398_n2990# a_n354_n3081# a_n268_n3277# DVDD sky130_fd_pr__pfet_01v8 ad=0.21 pd=1.34 as=0.21 ps=1.34 w=0.84 l=0.15
X164 DVDD a_1572_6# a_1828_n552# DVDD sky130_fd_pr__pfet_01v8 ad=0.21 pd=1.34 as=0.21 ps=1.34 w=0.84 l=0.15
X165 a_n138_n814# a_n494_n905# DVDD DVDD sky130_fd_pr__pfet_01v8 ad=0.21 pd=1.34 as=0.21 ps=1.34 w=0.84 l=0.15
X166 a_n398_n1626# a_n462_n1511# DVDD DVDD sky130_fd_pr__pfet_01v8 ad=0.105 pd=0.92 as=0.126 ps=1.44 w=0.42 l=0.15
X167 a_2608_n1832# a_1980_n2170# a_2478_n1832# DVDD sky130_fd_pr__pfet_01v8 ad=0.105 pd=0.92 as=0.105 ps=0.92 w=0.42 l=0.15
X168 DVDD b1 a_n138_274# DVDD sky130_fd_pr__pfet_01v8 ad=0.21 pd=1.34 as=0.21 ps=1.34 w=0.84 l=0.15
X169 DGND a7 a_2868_n1082# DGND sky130_fd_pr__nfet_01v8 ad=0.105 pd=0.92 as=0.105 ps=0.92 w=0.42 l=0.15
X170 DVDD a1 a_n138_274# DVDD sky130_fd_pr__pfet_01v8 ad=0.21 pd=1.34 as=0.21 ps=1.34 w=0.84 l=0.15
X171 a_n398_n538# a1 DVDD DVDD sky130_fd_pr__pfet_01v8 ad=0.105 pd=0.92 as=0.105 ps=0.92 w=0.42 l=0.15
X172 DVDD a3 a_n138_n1902# DVDD sky130_fd_pr__pfet_01v8 ad=0.21 pd=1.34 as=0.21 ps=1.34 w=0.84 l=0.15
X173 DVDD a_n494_n905# a_n398_n814# DVDD sky130_fd_pr__pfet_01v8 ad=0.252 pd=2.28 as=0.21 ps=1.34 w=0.84 l=0.15
X174 DVDD a5 a_1828_n3816# DVDD sky130_fd_pr__pfet_01v8 ad=0.21 pd=1.34 as=0.21 ps=1.34 w=0.84 l=0.15
X175 a_n138_n3277# a_n494_n3081# DGND DGND sky130_fd_pr__nfet_01v8 ad=0.252 pd=2.28 as=0.21 ps=1.34 w=0.84 l=0.15
X176 a_1828_n1640# b7 DVDD DVDD sky130_fd_pr__pfet_01v8 ad=0.21 pd=1.34 as=0.21 ps=1.34 w=0.84 l=0.15
X177 DGND b3 a_n398_n2376# DGND sky130_fd_pr__nfet_01v8 ad=0.105 pd=0.92 as=0.105 ps=0.92 w=0.42 l=0.15
X178 a_n268_n3277# a_n354_n3081# a_n398_n2990# DVDD sky130_fd_pr__pfet_01v8 ad=0.21 pd=1.34 as=0.21 ps=1.34 w=0.84 l=0.15
X179 DGND b1 a_n138_n13# DGND sky130_fd_pr__nfet_01v8 ad=0.21 pd=1.34 as=0.21 ps=1.34 w=0.84 l=0.15
X180 a_n494_n3081# a4 DVDD DVDD sky130_fd_pr__pfet_01v8 ad=0.252 pd=2.28 as=0.252 ps=2.28 w=0.84 l=0.15
X181 DVDD a_n331_n3685# a_n398_n3802# DVDD sky130_fd_pr__pfet_01v8 ad=0.105 pd=0.92 as=0.105 ps=0.92 w=0.42 l=0.15
X182 DVDD a_1518_n346# a_1828_n552# DVDD sky130_fd_pr__pfet_01v8 ad=0.21 pd=1.34 as=0.21 ps=1.34 w=0.84 l=0.15
X183 DGND a_n354_n905# a_n138_n1101# DGND sky130_fd_pr__nfet_01v8 ad=0.21 pd=1.34 as=0.21 ps=1.34 w=0.84 l=0.15
X184 a_n201_n3597# a4 DVDD DVDD sky130_fd_pr__pfet_01v8 ad=0.252 pd=2.28 as=0.252 ps=2.28 w=0.84 l=0.15
X185 a_2868_n2170# a_1980_n2170# DGND DGND sky130_fd_pr__nfet_01v8 ad=0.105 pd=0.92 as=0.105 ps=0.92 w=0.42 l=0.15
X186 a_2868_n1082# b7 DGND DGND sky130_fd_pr__nfet_01v8 ad=0.105 pd=0.92 as=0.105 ps=0.92 w=0.42 l=0.15
X187 DVDD b3 a_n138_n1902# DVDD sky130_fd_pr__pfet_01v8 ad=0.21 pd=1.34 as=0.21 ps=1.34 w=0.84 l=0.15
X188 a_1698_n3816# b5 a_1568_n3816# DVDD sky130_fd_pr__pfet_01v8 ad=0.21 pd=1.34 as=0.21 ps=1.34 w=0.84 l=0.15
X189 a_n138_274# a1 DVDD DVDD sky130_fd_pr__pfet_01v8 ad=0.21 pd=1.34 as=0.21 ps=1.34 w=0.84 l=0.15
X190 DVDD a7 a_2868_n744# DVDD sky130_fd_pr__pfet_01v8 ad=0.105 pd=0.92 as=0.105 ps=0.92 w=0.42 l=0.15
X191 a_122_n2376# a_n462_n2599# s3 DGND sky130_fd_pr__nfet_01v8 ad=0.105 pd=0.92 as=0.105 ps=0.92 w=0.42 l=0.15
X192 DVDD a_1518_n2522# a_1568_n2728# DVDD sky130_fd_pr__pfet_01v8 ad=0.252 pd=2.28 as=0.21 ps=1.34 w=0.84 l=0.15
X193 DVDD a1 a_n398_274# DVDD sky130_fd_pr__pfet_01v8 ad=0.252 pd=2.28 as=0.21 ps=1.34 w=0.84 l=0.15
X194 a_n462_n1511# b1 a_n398_n13# DGND sky130_fd_pr__nfet_01v8 ad=0.21 pd=1.34 as=0.21 ps=1.34 w=0.84 l=0.15
X195 a_n138_n13# b1 DGND DGND sky130_fd_pr__nfet_01v8 ad=0.21 pd=1.34 as=0.21 ps=1.34 w=0.84 l=0.15
X196 a_n138_n2990# a_n354_n3081# DVDD DVDD sky130_fd_pr__pfet_01v8 ad=0.21 pd=1.34 as=0.21 ps=1.34 w=0.84 l=0.15
X197 a_2868_n3258# a_1698_n3816# s5 DGND sky130_fd_pr__nfet_01v8 ad=0.105 pd=0.92 as=0.105 ps=0.92 w=0.42 l=0.15
X198 a_122_n3802# a_n462_n3687# s4 DVDD sky130_fd_pr__pfet_01v8 ad=0.105 pd=0.92 as=0.105 ps=0.92 w=0.42 l=0.15
X199 a_2608_n2170# a_1980_n2170# a_2478_n2170# DGND sky130_fd_pr__nfet_01v8 ad=0.105 pd=0.92 as=0.105 ps=0.92 w=0.42 l=0.15
X200 a_2868_344# a_1980_6# DVDD DVDD sky130_fd_pr__pfet_01v8 ad=0.105 pd=0.92 as=0.105 ps=0.92 w=0.42 l=0.15
X201 a_n138_n2990# a_n494_n3081# DVDD DVDD sky130_fd_pr__pfet_01v8 ad=0.21 pd=1.34 as=0.21 ps=1.34 w=0.84 l=0.15
X202 a_2608_n1082# b7 a_2478_n1082# DGND sky130_fd_pr__nfet_01v8 ad=0.105 pd=0.92 as=0.105 ps=0.92 w=0.42 l=0.15
X203 a_n331_n1509# b2 DGND DGND sky130_fd_pr__nfet_01v8 ad=0.126 pd=1.44 as=0.126 ps=1.44 w=0.42 l=0.15
X204 a_n462_n2599# a_n354_n905# a_n398_n1101# DGND sky130_fd_pr__nfet_01v8 ad=0.21 pd=1.34 as=0.21 ps=1.34 w=0.84 l=0.15
X205 DGND a_n201_n1421# a_252_n1288# DGND sky130_fd_pr__nfet_01v8 ad=0.126 pd=1.44 as=0.105 ps=0.92 w=0.42 l=0.15
X206 a_n398_n3464# a_n201_n3597# DGND DGND sky130_fd_pr__nfet_01v8 ad=0.105 pd=0.92 as=0.105 ps=0.92 w=0.42 l=0.15
X207 DVDD a_1572_n2170# a_1828_n2728# DVDD sky130_fd_pr__pfet_01v8 ad=0.21 pd=1.34 as=0.21 ps=1.34 w=0.84 l=0.15
X208 DGND b1 a_n398_n200# DGND sky130_fd_pr__nfet_01v8 ad=0.105 pd=0.92 as=0.105 ps=0.92 w=0.42 l=0.15
X209 DVDD b1 a_n138_274# DVDD sky130_fd_pr__pfet_01v8 ad=0.21 pd=1.34 as=0.21 ps=1.34 w=0.84 l=0.15
X210 a_n138_n13# cin a_n462_n1511# DGND sky130_fd_pr__nfet_01v8 ad=0.21 pd=1.34 as=0.21 ps=1.34 w=0.84 l=0.15
X211 DVDD a7 a_1828_n1640# DVDD sky130_fd_pr__pfet_01v8 ad=0.21 pd=1.34 as=0.21 ps=1.34 w=0.84 l=0.15
X212 DVDD a3 a_252_n2714# DVDD sky130_fd_pr__pfet_01v8 ad=0.126 pd=1.44 as=0.105 ps=0.92 w=0.42 l=0.15
X213 a_n398_274# b1 a_n462_n1511# DVDD sky130_fd_pr__pfet_01v8 ad=0.21 pd=1.34 as=0.21 ps=1.34 w=0.84 l=0.15
X214 a_2388_n1353# b7 DGND DGND sky130_fd_pr__nfet_01v8 ad=0.21 pd=1.34 as=0.21 ps=1.34 w=0.84 l=0.15
X215 a_n398_n3277# a_n494_n3081# DGND DGND sky130_fd_pr__nfet_01v8 ad=0.21 pd=1.34 as=0.252 ps=2.28 w=0.84 l=0.15
X216 a_n398_n814# a_n354_n905# a_n462_n2599# DVDD sky130_fd_pr__pfet_01v8 ad=0.21 pd=1.34 as=0.21 ps=1.34 w=0.84 l=0.15
X217 DVDD a_n494_n3081# a_n398_n2990# DVDD sky130_fd_pr__pfet_01v8 ad=0.252 pd=2.28 as=0.21 ps=1.34 w=0.84 l=0.15
X218 a_n462_n1511# b1 a_n398_274# DVDD sky130_fd_pr__pfet_01v8 ad=0.21 pd=1.34 as=0.21 ps=1.34 w=0.84 l=0.15
X219 a_n354_n905# b2 DGND DGND sky130_fd_pr__nfet_01v8 ad=0.126 pd=1.44 as=0.126 ps=1.44 w=0.42 l=0.15
X220 a_n138_n2189# a_n462_n2599# a_n462_n3687# DGND sky130_fd_pr__nfet_01v8 ad=0.21 pd=1.34 as=0.21 ps=1.34 w=0.84 l=0.15
X221 a_n138_274# b1 DVDD DVDD sky130_fd_pr__pfet_01v8 ad=0.21 pd=1.34 as=0.21 ps=1.34 w=0.84 l=0.15
X222 a_n138_n1101# a_n354_n905# DGND DGND sky130_fd_pr__nfet_01v8 ad=0.21 pd=1.34 as=0.21 ps=1.34 w=0.84 l=0.15
X223 a_1828_n552# a_1572_6# DVDD DVDD sky130_fd_pr__pfet_01v8 ad=0.21 pd=1.34 as=0.21 ps=1.34 w=0.84 l=0.15
X224 a_n138_n1902# a3 DVDD DVDD sky130_fd_pr__pfet_01v8 ad=0.21 pd=1.34 as=0.21 ps=1.34 w=0.84 l=0.15
X225 DGND a5 a_3128_n3529# DGND sky130_fd_pr__nfet_01v8 ad=0.252 pd=2.28 as=0.21 ps=1.34 w=0.84 l=0.15
X226 DVDD a1 a_252_n538# DVDD sky130_fd_pr__pfet_01v8 ad=0.126 pd=1.44 as=0.105 ps=0.92 w=0.42 l=0.15
X227 DVDD b7 a_1828_n1640# DVDD sky130_fd_pr__pfet_01v8 ad=0.21 pd=1.34 as=0.21 ps=1.34 w=0.84 l=0.15
X228 a_n462_n2599# a_n354_n905# a_n398_n814# DVDD sky130_fd_pr__pfet_01v8 ad=0.21 pd=1.34 as=0.21 ps=1.34 w=0.84 l=0.15
X229 a_1698_n1640# a_1698_n2728# a_1828_n1640# DVDD sky130_fd_pr__pfet_01v8 ad=0.21 pd=1.34 as=0.21 ps=1.34 w=0.84 l=0.15
X230 DGND a_1518_n2522# a_3128_n2441# DGND sky130_fd_pr__nfet_01v8 ad=0.252 pd=2.28 as=0.21 ps=1.34 w=0.84 l=0.15
X231 a_n462_n1511# cin a_n138_274# DVDD sky130_fd_pr__pfet_01v8 ad=0.21 pd=1.34 as=0.21 ps=1.34 w=0.84 l=0.15
X232 a_2388_n265# a_1518_n346# DGND DGND sky130_fd_pr__nfet_01v8 ad=0.21 pd=1.34 as=0.21 ps=1.34 w=0.84 l=0.15
X233 a_2868_n744# a_1698_n1640# s7 DVDD sky130_fd_pr__pfet_01v8 ad=0.105 pd=0.92 as=0.105 ps=0.92 w=0.42 l=0.15
X234 a_2478_n3258# a5 DGND DGND sky130_fd_pr__nfet_01v8 ad=0.105 pd=0.92 as=0.126 ps=1.44 w=0.42 l=0.15
X235 a_252_n2376# b3 a_122_n2376# DGND sky130_fd_pr__nfet_01v8 ad=0.105 pd=0.92 as=0.105 ps=0.92 w=0.42 l=0.15
X236 s4 a_n268_n3277# a_n398_n3464# DGND sky130_fd_pr__nfet_01v8 ad=0.105 pd=0.92 as=0.105 ps=0.92 w=0.42 l=0.15
X237 DVDD b6 a_1980_n2170# DVDD sky130_fd_pr__pfet_01v8 ad=0.252 pd=2.28 as=0.252 ps=2.28 w=0.84 l=0.15
X238 DVDD a_n494_n3081# a_n138_n2990# DVDD sky130_fd_pr__pfet_01v8 ad=0.21 pd=1.34 as=0.21 ps=1.34 w=0.84 l=0.15
X239 a_n138_274# cin a_n462_n1511# DVDD sky130_fd_pr__pfet_01v8 ad=0.21 pd=1.34 as=0.21 ps=1.34 w=0.84 l=0.15
X240 s1 a_n462_n1511# a_n398_n200# DGND sky130_fd_pr__nfet_01v8 ad=0.105 pd=0.92 as=0.105 ps=0.92 w=0.42 l=0.15
X241 a_n138_n1902# b3 DVDD DVDD sky130_fd_pr__pfet_01v8 ad=0.21 pd=1.34 as=0.21 ps=1.34 w=0.84 l=0.15
X242 a_1828_n3816# a_n268_n3277# a_1698_n3816# DVDD sky130_fd_pr__pfet_01v8 ad=0.21 pd=1.34 as=0.21 ps=1.34 w=0.84 l=0.15
X243 a_252_n3802# a_n331_n3685# a_122_n3802# DVDD sky130_fd_pr__pfet_01v8 ad=0.105 pd=0.92 as=0.105 ps=0.92 w=0.42 l=0.15
X244 DGND b5 a_2388_n3529# DGND sky130_fd_pr__nfet_01v8 ad=0.21 pd=1.34 as=0.21 ps=1.34 w=0.84 l=0.15
X245 a_1828_n2728# a_1518_n2522# DVDD DVDD sky130_fd_pr__pfet_01v8 ad=0.21 pd=1.34 as=0.21 ps=1.34 w=0.84 l=0.15
X246 a_n398_n1288# a_n462_n1511# DGND DGND sky130_fd_pr__nfet_01v8 ad=0.105 pd=0.92 as=0.126 ps=1.44 w=0.42 l=0.15
X247 DGND a_1572_n2170# a_2388_n2441# DGND sky130_fd_pr__nfet_01v8 ad=0.21 pd=1.34 as=0.21 ps=1.34 w=0.84 l=0.15
X248 a_n398_n13# a1 DGND DGND sky130_fd_pr__nfet_01v8 ad=0.21 pd=1.34 as=0.252 ps=2.28 w=0.84 l=0.15
X249 a_1828_n1640# b7 DVDD DVDD sky130_fd_pr__pfet_01v8 ad=0.21 pd=1.34 as=0.21 ps=1.34 w=0.84 l=0.15
X250 DGND a5 a_2868_n3258# DGND sky130_fd_pr__nfet_01v8 ad=0.105 pd=0.92 as=0.105 ps=0.92 w=0.42 l=0.15
X251 a_n398_n200# a1 DGND DGND sky130_fd_pr__nfet_01v8 ad=0.105 pd=0.92 as=0.105 ps=0.92 w=0.42 l=0.15
X252 a_2868_n744# b7 DVDD DVDD sky130_fd_pr__pfet_01v8 ad=0.105 pd=0.92 as=0.105 ps=0.92 w=0.42 l=0.15
X253 DGND a7 a_2388_n1353# DGND sky130_fd_pr__nfet_01v8 ad=0.21 pd=1.34 as=0.252 ps=2.28 w=0.84 l=0.15
X254 a_1568_n1640# b7 a_1698_n1640# DVDD sky130_fd_pr__pfet_01v8 ad=0.21 pd=1.34 as=0.21 ps=1.34 w=0.84 l=0.15
X255 DGND b3 a_n138_n2189# DGND sky130_fd_pr__nfet_01v8 ad=0.21 pd=1.34 as=0.21 ps=1.34 w=0.84 l=0.15
X256 a_n398_n2714# a_n462_n2599# DVDD DVDD sky130_fd_pr__pfet_01v8 ad=0.105 pd=0.92 as=0.126 ps=1.44 w=0.42 l=0.15
X257 DGND a_1698_n1640# a_2868_6# DGND sky130_fd_pr__nfet_01v8 ad=0.126 pd=1.44 as=0.105 ps=0.92 w=0.42 l=0.15
X258 a_n398_n1626# a_n201_n1421# DVDD DVDD sky130_fd_pr__pfet_01v8 ad=0.105 pd=0.92 as=0.105 ps=0.92 w=0.42 l=0.15
X259 DVDD a_n354_n3081# a_n138_n2990# DVDD sky130_fd_pr__pfet_01v8 ad=0.21 pd=1.34 as=0.21 ps=1.34 w=0.84 l=0.15
X260 DVDD a_1698_n1640# a_2868_344# DVDD sky130_fd_pr__pfet_01v8 ad=0.126 pd=1.44 as=0.105 ps=0.92 w=0.42 l=0.15
X261 a_n462_n2599# a_n462_n1511# a_n138_n814# DVDD sky130_fd_pr__pfet_01v8 ad=0.21 pd=1.34 as=0.21 ps=1.34 w=0.84 l=0.15
X262 DVDD a_n354_n905# a_n138_n814# DVDD sky130_fd_pr__pfet_01v8 ad=0.21 pd=1.34 as=0.21 ps=1.34 w=0.84 l=0.15
X263 DGND a6 a_2184_n2170# DGND sky130_fd_pr__nfet_01v8 ad=0.126 pd=1.44 as=0.126 ps=1.44 w=0.42 l=0.15
X264 a_n494_n3081# a4 DGND DGND sky130_fd_pr__nfet_01v8 ad=0.126 pd=1.44 as=0.126 ps=1.44 w=0.42 l=0.15
X265 DGND a_n331_n3685# a_n398_n3464# DGND sky130_fd_pr__nfet_01v8 ad=0.105 pd=0.92 as=0.105 ps=0.92 w=0.42 l=0.15
X266 a_1828_n2728# a_1572_n2170# DVDD DVDD sky130_fd_pr__pfet_01v8 ad=0.21 pd=1.34 as=0.21 ps=1.34 w=0.84 l=0.15
X267 a_n201_n3597# a4 DGND DGND sky130_fd_pr__nfet_01v8 ad=0.126 pd=1.44 as=0.126 ps=1.44 w=0.42 l=0.15
X268 DGND b8 a_1572_6# DGND sky130_fd_pr__nfet_01v8 ad=0.126 pd=1.44 as=0.126 ps=1.44 w=0.42 l=0.15
X269 a_1568_n1640# a7 DVDD DVDD sky130_fd_pr__pfet_01v8 ad=0.21 pd=1.34 as=0.252 ps=2.28 w=0.84 l=0.15
X270 a_1828_n1640# a7 DVDD DVDD sky130_fd_pr__pfet_01v8 ad=0.21 pd=1.34 as=0.21 ps=1.34 w=0.84 l=0.15
X271 a_n398_n1902# a3 DVDD DVDD sky130_fd_pr__pfet_01v8 ad=0.21 pd=1.34 as=0.252 ps=2.28 w=0.84 l=0.15
X272 DGND a_n494_n905# a_n138_n1101# DGND sky130_fd_pr__nfet_01v8 ad=0.21 pd=1.34 as=0.21 ps=1.34 w=0.84 l=0.15