*SPEF "ieee 1481-1999"
*DESIGN "adder"
*DATE "08:45:56 Friday April 18, 2025"
*VENDOR "The OpenROAD Project"
*PROGRAM "OpenROAD"
*VERSION "b16bda7e82721d10566ff7e2b68f1ff0be9f9e38"
*DESIGN_FLOW "NAME_SCOPE LOCAL" "PIN_CAP NONE"
*DIVIDER /
*DELIMITER :
*BUS_DELIMITER []
*T_UNIT 1 NS
*C_UNIT 1 PF
*R_UNIT 1 OHM
*L_UNIT 1 HENRY

*NAME_MAP
*3 a1
*4 a10
*5 a11
*6 a12
*7 a13
*8 a14
*9 a15
*10 a16
*11 a2
*12 a3
*13 a4
*14 a5
*15 a6
*16 a7
*17 a8
*18 a9
*19 b1
*20 b10
*21 b11
*22 b12
*23 b13
*24 b14
*25 b15
*26 b16
*27 b2
*28 b3
*29 b4
*30 b5
*31 b6
*32 b7
*33 b8
*34 b9
*35 cin
*36 clk
*37 cout
*38 s1
*39 s10
*40 s11
*41 s12
*42 s13
*43 s14
*44 s15
*45 s16
*46 s2
*47 s3
*48 s4
*49 s5
*50 s6
*51 s7
*52 s8
*53 s9
*54 _000_
*55 _001_
*56 _002_
*57 _003_
*58 _004_
*59 _005_
*60 _006_
*61 _007_
*62 _008_
*63 _009_
*64 _010_
*65 _011_
*66 _012_
*67 _013_
*68 _014_
*69 _015_
*70 _016_
*71 _017_
*72 _018_
*73 _019_
*74 _020_
*75 _021_
*76 _022_
*77 _023_
*78 _024_
*79 _025_
*80 _026_
*81 _027_
*82 _028_
*83 _029_
*84 _030_
*85 _031_
*86 _032_
*87 _033_
*88 _034_
*89 _035_
*90 _036_
*91 _037_
*92 _038_
*93 _039_
*94 _040_
*95 _041_
*96 _042_
*97 _043_
*98 _044_
*99 _045_
*100 _046_
*101 _047_
*102 _048_
*103 _049_
*104 _050_
*105 _051_
*106 _052_
*107 _053_
*108 _054_
*109 _055_
*110 _056_
*111 _057_
*112 _058_
*113 _059_
*114 clknet_0_clk
*115 clknet_2_0__leaf_clk
*116 clknet_2_1__leaf_clk
*117 clknet_2_2__leaf_clk
*118 clknet_2_3__leaf_clk
*119 net1
*120 net10
*121 net11
*122 net12
*123 net13
*124 net14
*125 net15
*126 net16
*127 net17
*128 net18
*129 net19
*130 net2
*131 net20
*132 net21
*133 net22
*134 net23
*135 net24
*136 net25
*137 net26
*138 net27
*139 net28
*140 net29
*141 net3
*142 net30
*143 net31
*144 net32
*145 net33
*146 net34
*147 net35
*148 net36
*149 net37
*150 net38
*151 net39
*152 net4
*153 net40
*154 net41
*155 net42
*156 net43
*157 net44
*158 net45
*159 net46
*160 net47
*161 net48
*162 net49
*163 net5
*164 net50
*165 net51
*166 net52
*167 net53
*168 net54
*169 net6
*170 net7
*171 net8
*172 net9
*173 x1\.a
*174 x1\.b
*175 x1\.cin
*176 x1\.sum
*177 x11\.a
*178 x11\.b
*179 x11\.sum
*180 x12\.a
*181 x12\.b
*182 x12\.sum
*183 x13\.a
*184 x13\.b
*185 x13\.sum
*186 x14\.a
*187 x14\.b
*188 x14\.sum
*189 x16\.a
*190 x16\.b
*191 x16\.sum
*192 x17\.a
*193 x17\.b
*194 x17\.sum
*195 x18\.a
*196 x18\.b
*197 x18\.sum
*198 x19\.a
*199 x19\.b
*200 x19\.sum
*201 x2\.a
*202 x2\.b
*203 x2\.sum
*204 x20\.out
*205 x23\.A
*206 x23\.B
*207 x24\.A
*208 x24\.B
*209 x25\.A
*210 x25\.B
*211 x26\.A
*212 x26\.B
*213 x27\.A
*214 x27\.B
*215 x28\.A
*216 x28\.B
*217 x3\.sum
*218 x4\.sum
*219 x6\.sum
*220 x7\.sum
*221 x8\.sum
*222 x9\.sum
*223 FILLER_0_0_104
*224 FILLER_0_0_108
*225 FILLER_0_0_113
*226 FILLER_0_0_118
*227 FILLER_0_0_124
*228 FILLER_0_0_128
*229 FILLER_0_0_14
*230 FILLER_0_0_18
*231 FILLER_0_0_24
*232 FILLER_0_0_29
*233 FILLER_0_0_3
*234 FILLER_0_0_38
*235 FILLER_0_0_44
*236 FILLER_0_0_48
*237 FILLER_0_0_60
*238 FILLER_0_0_64
*239 FILLER_0_0_68
*240 FILLER_0_0_74
*241 FILLER_0_0_78
*242 FILLER_0_0_88
*243 FILLER_0_0_94
*244 FILLER_0_0_98
*245 FILLER_0_10_101
*246 FILLER_0_10_113
*247 FILLER_0_10_129
*248 FILLER_0_10_135
*249 FILLER_0_10_24
*250 FILLER_0_10_29
*251 FILLER_0_10_44
*252 FILLER_0_10_51
*253 FILLER_0_10_6
*254 FILLER_0_10_63
*255 FILLER_0_10_69
*256 FILLER_0_10_83
*257 FILLER_0_11_100
*258 FILLER_0_11_113
*259 FILLER_0_11_117
*260 FILLER_0_11_134
*261 FILLER_0_11_3
*262 FILLER_0_11_51
*263 FILLER_0_11_55
*264 FILLER_0_11_57
*265 FILLER_0_11_69
*266 FILLER_0_11_88
*267 FILLER_0_12_134
*268 FILLER_0_12_29
*269 FILLER_0_12_46
*270 FILLER_0_12_58
*271 FILLER_0_12_85
*272 FILLER_0_12_9
*273 FILLER_0_12_93
*274 FILLER_0_13_107
*275 FILLER_0_13_111
*276 FILLER_0_13_19
*277 FILLER_0_13_31
*278 FILLER_0_13_43
*279 FILLER_0_13_55
*280 FILLER_0_13_73
*281 FILLER_0_13_91
*282 FILLER_0_14_11
*283 FILLER_0_14_134
*284 FILLER_0_14_27
*285 FILLER_0_14_29
*286 FILLER_0_14_3
*287 FILLER_0_14_41
*288 FILLER_0_14_65
*289 FILLER_0_14_99
*290 FILLER_0_15_106
*291 FILLER_0_15_119
*292 FILLER_0_15_127
*293 FILLER_0_15_132
*294 FILLER_0_15_14
*295 FILLER_0_15_27
*296 FILLER_0_15_51
*297 FILLER_0_15_55
*298 FILLER_0_15_57
*299 FILLER_0_15_6
*300 FILLER_0_15_69
*301 FILLER_0_15_75
*302 FILLER_0_15_82
*303 FILLER_0_15_90
*304 FILLER_0_16_109
*305 FILLER_0_16_121
*306 FILLER_0_16_133
*307 FILLER_0_16_18
*308 FILLER_0_16_26
*309 FILLER_0_16_29
*310 FILLER_0_16_37
*311 FILLER_0_16_59
*312 FILLER_0_16_6
*313 FILLER_0_16_67
*314 FILLER_0_16_85
*315 FILLER_0_16_97
*316 FILLER_0_17_109
*317 FILLER_0_17_126
*318 FILLER_0_17_134
*319 FILLER_0_17_20
*320 FILLER_0_17_28
*321 FILLER_0_17_3
*322 FILLER_0_17_46
*323 FILLER_0_17_54
*324 FILLER_0_17_57
*325 FILLER_0_17_69
*326 FILLER_0_17_97
*327 FILLER_0_18_105
*328 FILLER_0_18_128
*329 FILLER_0_18_132
*330 FILLER_0_18_23
*331 FILLER_0_18_27
*332 FILLER_0_18_29
*333 FILLER_0_18_41
*334 FILLER_0_18_49
*335 FILLER_0_18_6
*336 FILLER_0_18_67
*337 FILLER_0_18_79
*338 FILLER_0_18_83
*339 FILLER_0_18_85
*340 FILLER_0_18_97
*341 FILLER_0_19_101
*342 FILLER_0_19_113
*343 FILLER_0_19_3
*344 FILLER_0_19_37
*345 FILLER_0_19_54
*346 FILLER_0_19_57
*347 FILLER_0_19_65
*348 FILLER_0_19_83
*349 FILLER_0_19_87
*350 FILLER_0_1_109
*351 FILLER_0_1_113
*352 FILLER_0_1_117
*353 FILLER_0_1_134
*354 FILLER_0_1_25
*355 FILLER_0_1_49
*356 FILLER_0_1_55
*357 FILLER_0_1_57
*358 FILLER_0_1_6
*359 FILLER_0_1_85
*360 FILLER_0_1_97
*361 FILLER_0_20_128
*362 FILLER_0_20_21
*363 FILLER_0_20_27
*364 FILLER_0_20_3
*365 FILLER_0_20_45
*366 FILLER_0_20_64
*367 FILLER_0_20_85
*368 FILLER_0_21_103
*369 FILLER_0_21_113
*370 FILLER_0_21_117
*371 FILLER_0_21_134
*372 FILLER_0_21_24
*373 FILLER_0_21_36
*374 FILLER_0_21_48
*375 FILLER_0_21_57
*376 FILLER_0_21_6
*377 FILLER_0_21_61
*378 FILLER_0_21_78
*379 FILLER_0_21_95
*380 FILLER_0_22_104
*381 FILLER_0_22_108
*382 FILLER_0_22_113
*383 FILLER_0_22_118
*384 FILLER_0_22_124
*385 FILLER_0_22_128
*386 FILLER_0_22_21
*387 FILLER_0_22_29
*388 FILLER_0_22_38
*389 FILLER_0_22_44
*390 FILLER_0_22_48
*391 FILLER_0_22_60
*392 FILLER_0_22_64
*393 FILLER_0_22_68
*394 FILLER_0_22_74
*395 FILLER_0_22_78
*396 FILLER_0_22_88
*397 FILLER_0_22_94
*398 FILLER_0_22_98
*399 FILLER_0_2_133
*400 FILLER_0_2_29
*401 FILLER_0_2_35
*402 FILLER_0_2_6
*403 FILLER_0_3_106
*404 FILLER_0_3_113
*405 FILLER_0_3_117
*406 FILLER_0_3_134
*407 FILLER_0_3_20
*408 FILLER_0_3_3
*409 FILLER_0_3_47
*410 FILLER_0_3_55
*411 FILLER_0_3_57
*412 FILLER_0_3_65
*413 FILLER_0_3_82
*414 FILLER_0_3_94
*415 FILLER_0_4_109
*416 FILLER_0_4_121
*417 FILLER_0_4_133
*418 FILLER_0_4_27
*419 FILLER_0_4_29
*420 FILLER_0_4_3
*421 FILLER_0_4_33
*422 FILLER_0_4_50
*423 FILLER_0_4_62
*424 FILLER_0_4_74
*425 FILLER_0_4_82
*426 FILLER_0_4_85
*427 FILLER_0_4_97
*428 FILLER_0_5_101
*429 FILLER_0_5_109
*430 FILLER_0_5_113
*431 FILLER_0_5_125
*432 FILLER_0_5_133
*433 FILLER_0_5_24
*434 FILLER_0_5_52
*435 FILLER_0_5_6
*436 FILLER_0_5_64
*437 FILLER_0_5_72
*438 FILLER_0_5_89
*439 FILLER_0_6_123
*440 FILLER_0_6_135
*441 FILLER_0_6_14
*442 FILLER_0_6_26
*443 FILLER_0_6_29
*444 FILLER_0_6_41
*445 FILLER_0_6_60
*446 FILLER_0_6_9
*447 FILLER_0_6_92
*448 FILLER_0_6_98
*449 FILLER_0_7_105
*450 FILLER_0_7_111
*451 FILLER_0_7_113
*452 FILLER_0_7_125
*453 FILLER_0_7_133
*454 FILLER_0_7_27
*455 FILLER_0_7_3
*456 FILLER_0_7_31
*457 FILLER_0_7_53
*458 FILLER_0_7_57
*459 FILLER_0_7_61
*460 FILLER_0_7_75
*461 FILLER_0_7_84
*462 FILLER_0_7_88
*463 FILLER_0_8_135
*464 FILLER_0_8_15
*465 FILLER_0_8_27
*466 FILLER_0_8_3
*467 FILLER_0_8_62
*468 FILLER_0_8_74
*469 FILLER_0_8_82
*470 FILLER_0_8_85
*471 FILLER_0_8_97
*472 FILLER_0_9_103
*473 FILLER_0_9_111
*474 FILLER_0_9_113
*475 FILLER_0_9_125
*476 FILLER_0_9_133
*477 FILLER_0_9_20
*478 FILLER_0_9_32
*479 FILLER_0_9_39
*480 FILLER_0_9_50
*481 FILLER_0_9_57
*482 FILLER_0_9_6
*483 FILLER_0_9_69
*484 FILLER_0_9_91
*485 PHY_EDGE_ROW_0_Left_23
*486 PHY_EDGE_ROW_0_Right_0
*487 PHY_EDGE_ROW_10_Left_33
*488 PHY_EDGE_ROW_10_Right_10
*489 PHY_EDGE_ROW_11_Left_34
*490 PHY_EDGE_ROW_11_Right_11
*491 PHY_EDGE_ROW_12_Left_35
*492 PHY_EDGE_ROW_12_Right_12
*493 PHY_EDGE_ROW_13_Left_36
*494 PHY_EDGE_ROW_13_Right_13
*495 PHY_EDGE_ROW_14_Left_37
*496 PHY_EDGE_ROW_14_Right_14
*497 PHY_EDGE_ROW_15_Left_38
*498 PHY_EDGE_ROW_15_Right_15
*499 PHY_EDGE_ROW_16_Left_39
*500 PHY_EDGE_ROW_16_Right_16
*501 PHY_EDGE_ROW_17_Left_40
*502 PHY_EDGE_ROW_17_Right_17
*503 PHY_EDGE_ROW_18_Left_41
*504 PHY_EDGE_ROW_18_Right_18
*505 PHY_EDGE_ROW_19_Left_42
*506 PHY_EDGE_ROW_19_Right_19
*507 PHY_EDGE_ROW_1_Left_24
*508 PHY_EDGE_ROW_1_Right_1
*509 PHY_EDGE_ROW_20_Left_43
*510 PHY_EDGE_ROW_20_Right_20
*511 PHY_EDGE_ROW_21_Left_44
*512 PHY_EDGE_ROW_21_Right_21
*513 PHY_EDGE_ROW_22_Left_45
*514 PHY_EDGE_ROW_22_Right_22
*515 PHY_EDGE_ROW_2_Left_25
*516 PHY_EDGE_ROW_2_Right_2
*517 PHY_EDGE_ROW_3_Left_26
*518 PHY_EDGE_ROW_3_Right_3
*519 PHY_EDGE_ROW_4_Left_27
*520 PHY_EDGE_ROW_4_Right_4
*521 PHY_EDGE_ROW_5_Left_28
*522 PHY_EDGE_ROW_5_Right_5
*523 PHY_EDGE_ROW_6_Left_29
*524 PHY_EDGE_ROW_6_Right_6
*525 PHY_EDGE_ROW_7_Left_30
*526 PHY_EDGE_ROW_7_Right_7
*527 PHY_EDGE_ROW_8_Left_31
*528 PHY_EDGE_ROW_8_Right_8
*529 PHY_EDGE_ROW_9_Left_32
*530 PHY_EDGE_ROW_9_Right_9
*531 TAP_TAPCELL_ROW_0_46
*532 TAP_TAPCELL_ROW_0_47
*533 TAP_TAPCELL_ROW_0_48
*534 TAP_TAPCELL_ROW_0_49
*535 TAP_TAPCELL_ROW_10_68
*536 TAP_TAPCELL_ROW_10_69
*537 TAP_TAPCELL_ROW_11_70
*538 TAP_TAPCELL_ROW_11_71
*539 TAP_TAPCELL_ROW_12_72
*540 TAP_TAPCELL_ROW_12_73
*541 TAP_TAPCELL_ROW_13_74
*542 TAP_TAPCELL_ROW_13_75
*543 TAP_TAPCELL_ROW_14_76
*544 TAP_TAPCELL_ROW_14_77
*545 TAP_TAPCELL_ROW_15_78
*546 TAP_TAPCELL_ROW_15_79
*547 TAP_TAPCELL_ROW_16_80
*548 TAP_TAPCELL_ROW_16_81
*549 TAP_TAPCELL_ROW_17_82
*550 TAP_TAPCELL_ROW_17_83
*551 TAP_TAPCELL_ROW_18_84
*552 TAP_TAPCELL_ROW_18_85
*553 TAP_TAPCELL_ROW_19_86
*554 TAP_TAPCELL_ROW_19_87
*555 TAP_TAPCELL_ROW_1_50
*556 TAP_TAPCELL_ROW_1_51
*557 TAP_TAPCELL_ROW_20_88
*558 TAP_TAPCELL_ROW_20_89
*559 TAP_TAPCELL_ROW_21_90
*560 TAP_TAPCELL_ROW_21_91
*561 TAP_TAPCELL_ROW_22_92
*562 TAP_TAPCELL_ROW_22_93
*563 TAP_TAPCELL_ROW_22_94
*564 TAP_TAPCELL_ROW_22_95
*565 TAP_TAPCELL_ROW_2_52
*566 TAP_TAPCELL_ROW_2_53
*567 TAP_TAPCELL_ROW_3_54
*568 TAP_TAPCELL_ROW_3_55
*569 TAP_TAPCELL_ROW_4_56
*570 TAP_TAPCELL_ROW_4_57
*571 TAP_TAPCELL_ROW_5_58
*572 TAP_TAPCELL_ROW_5_59
*573 TAP_TAPCELL_ROW_6_60
*574 TAP_TAPCELL_ROW_6_61
*575 TAP_TAPCELL_ROW_7_62
*576 TAP_TAPCELL_ROW_7_63
*577 TAP_TAPCELL_ROW_8_64
*578 TAP_TAPCELL_ROW_8_65
*579 TAP_TAPCELL_ROW_9_66
*580 TAP_TAPCELL_ROW_9_67
*581 _060_
*582 _061_
*583 _062_
*584 _063_
*585 _064_
*586 _065_
*587 _066_
*588 _067_
*589 _068_
*590 _069_
*591 _070_
*592 _071_
*593 _072_
*594 _073_
*595 _074_
*596 _075_
*597 _076_
*598 _077_
*599 _078_
*600 _079_
*601 _080_
*602 _081_
*603 _082_
*604 _083_
*605 _084_
*606 _085_
*607 _086_
*608 _087_
*609 _088_
*610 _089_
*611 _090_
*612 _091_
*613 _092_
*614 _093_
*615 _094_
*616 _095_
*617 _096_
*618 _097_
*619 _098_
*620 _099_
*621 _100_
*622 _101_
*623 _102_
*624 _103_
*625 _104_
*626 _105_
*627 _106_
*628 _107_
*629 _108_
*630 _109_
*631 _110_
*632 _111_
*633 _112_
*634 _113_
*635 _114_
*636 _115_
*637 _116_
*638 _117_
*639 _118_
*640 _119_
*641 _120_
*642 _121_
*643 _122_
*644 _123_
*645 _124_
*646 _125_
*647 _126_
*648 _127_
*649 _128_
*650 _129_
*651 _130_
*652 _131_
*653 _132_
*654 _133_
*655 _134_
*656 _135_
*657 _136_
*658 _137_
*659 _138_
*660 _139_
*661 _140_
*662 _141_
*663 _142_
*664 _143_
*665 _144_
*666 _145_
*667 _146_
*668 _147_
*669 _148_
*670 _149_
*671 _150_
*672 _151_
*673 _152_
*674 _153_
*675 _154_
*676 _155_
*677 _156_
*678 _157_
*679 _158_
*680 _159_
*681 _160_
*682 _161_
*683 _162_
*684 _163_
*685 _164_
*686 _165_
*687 _166_
*688 _167_
*689 _168_
*690 _169_
*691 _170_
*692 _171_
*693 _172_
*694 _173_
*695 _174_
*696 _175_
*697 _176_
*698 _177_
*699 _178_
*700 _179_
*701 _180_
*702 _181_
*703 _182_
*704 _183_
*705 _184_
*706 _185_
*707 _186_
*708 clkbuf_0_clk
*709 clkbuf_2_0__f_clk
*710 clkbuf_2_1__f_clk
*711 clkbuf_2_2__f_clk
*712 clkbuf_2_3__f_clk
*713 clkload0
*714 clkload1
*715 clkload2
*716 input1
*717 input10
*718 input11
*719 input12
*720 input13
*721 input14
*722 input15
*723 input16
*724 input17
*725 input18
*726 input19
*727 input2
*728 input20
*729 input21
*730 input22
*731 input23
*732 input24
*733 input25
*734 input26
*735 input27
*736 input28
*737 input29
*738 input3
*739 input30
*740 input31
*741 input32
*742 input33
*743 input4
*744 input5
*745 input6
*746 input7
*747 input8
*748 input9
*749 output34
*750 output35
*751 output36
*752 output37
*753 output38
*754 output39
*755 output40
*756 output41
*757 output42
*758 output43
*759 output44
*760 output45
*761 output46
*762 output47
*763 output48
*764 output49
*765 output50
*766 rebuffer1
*767 rebuffer2
*768 rebuffer3
*769 rebuffer4

*PORTS
a1 I
a10 I
a11 I
a12 I
a13 I
a14 I
a15 I
a16 I
a2 I
a3 I
a4 I
a5 I
a6 I
a7 I
a8 I
a9 I
b1 I
b10 I
b11 I
b12 I
b13 I
b14 I
b15 I
b16 I
b2 I
b3 I
b4 I
b5 I
b6 I
b7 I
b8 I
b9 I
cin I
clk I
cout O
s1 O
s10 O
s11 O
s12 O
s13 O
s14 O
s15 O
s16 O
s2 O
s3 O
s4 O
s5 O
s6 O
s7 O
s8 O
s9 O

*D_NET *3 0.00219008
*CONN
*P a1 I
*I *716:A I *D sky130_fd_sc_hd__clkbuf_1
*CAP
1 a1 0.000787627
2 *716:A 0
3 *3:11 0.000787627
4 *3:11 *11:11 9.84851e-05
5 *3:11 *37:10 0.000401899
6 *3:11 *44:10 1.24362e-05
7 *3:11 *146:14 1.37232e-05
8 *3:11 *154:16 8.82787e-05
*RES
1 a1 *3:11 34.5543 
2 *3:11 *716:A 23 
*END

*D_NET *4 0.00121365
*CONN
*P a10 I
*I *727:A I *D sky130_fd_sc_hd__clkbuf_1
*CAP
1 a10 0.000590724
2 *727:A 0
3 *4:9 0.000590724
4 *4:9 *5:9 0
5 *4:9 *18:9 0
6 *4:9 *130:8 3.22051e-05
*RES
1 a10 *4:9 27.7393 
2 *4:9 *727:A 23 
*END

*D_NET *5 0.00124799
*CONN
*P a11 I
*I *738:A I *D sky130_fd_sc_hd__clkbuf_1
*CAP
1 a11 0.00060968
2 *738:A 0
3 *5:9 0.00060968
4 *5:9 *743:A 0
5 *5:9 *141:8 2.86326e-05
6 *4:9 *5:9 0
*RES
1 a11 *5:9 27.7393 
2 *5:9 *738:A 23 
*END

*D_NET *6 0.00110929
*CONN
*P a12 I
*I *743:A I *D sky130_fd_sc_hd__clkbuf_1
*CAP
1 a12 0.000554643
2 *743:A 0.000554643
3 *743:A *744:A 0
4 *5:9 *743:A 0
*RES
1 a12 *743:A 49.7864 
*END

*D_NET *7 0.00119133
*CONN
*P a13 I
*I *744:A I *D sky130_fd_sc_hd__clkbuf_1
*CAP
1 a13 0.000532668
2 *744:A 0.000532668
3 *744:A *684:D 6.48142e-05
4 *744:A *169:8 6.17437e-06
5 *744:A *171:10 5.50049e-05
6 *743:A *744:A 0
*RES
1 a13 *744:A 49.7864 
*END

*D_NET *8 0.00115898
*CONN
*P a14 I
*I *745:A I *D sky130_fd_sc_hd__clkbuf_1
*CAP
1 a14 0.000579491
2 *745:A 0
3 *8:9 0.000579491
4 *8:9 *746:A 0
*RES
1 a14 *8:9 27.7393 
2 *8:9 *745:A 23 
*END

*D_NET *9 0.00108431
*CONN
*P a15 I
*I *746:A I *D sky130_fd_sc_hd__clkbuf_1
*CAP
1 a15 0.000542157
2 *746:A 0.000542157
3 *746:A *10:11 0
4 *8:9 *746:A 0
*RES
1 a15 *746:A 49.7864 
*END

*D_NET *10 0.00166393
*CONN
*P a16 I
*I *747:A I *D sky130_fd_sc_hd__clkbuf_1
*CAP
1 a16 0.000831967
2 *747:A 0
3 *10:11 0.000831967
4 *746:A *10:11 0
*RES
1 a16 *10:11 32.1721 
2 *10:11 *747:A 23 
*END

*D_NET *11 0.00131056
*CONN
*P a2 I
*I *748:A I *D sky130_fd_sc_hd__clkbuf_1
*CAP
1 a2 0.000539841
2 *748:A 0
3 *11:11 0.000539841
4 *11:11 *717:A 0
5 *11:11 *37:10 8.86908e-05
6 *11:11 *154:16 4.37033e-05
7 *3:11 *11:11 9.84851e-05
*RES
1 a2 *11:11 27.4079 
2 *11:11 *748:A 23 
*END

*D_NET *12 0.00116963
*CONN
*P a3 I
*I *717:A I *D sky130_fd_sc_hd__clkbuf_1
*CAP
1 a3 0.000584814
2 *717:A 0.000584814
3 *717:A *13:9 0
4 *11:11 *717:A 0
*RES
1 a3 *717:A 49.7864 
*END

*D_NET *13 0.00138796
*CONN
*P a4 I
*I *718:A I *D sky130_fd_sc_hd__clkbuf_1
*CAP
1 a4 0.000548319
2 *718:A 0
3 *13:9 0.000548319
4 *13:9 *146:14 0.000144501
5 *13:9 *154:16 0.000146822
6 *13:9 *155:10 0
7 *717:A *13:9 0
*RES
1 a4 *13:9 27.7393 
2 *13:9 *718:A 23 
*END

*D_NET *14 0.0011766
*CONN
*P a5 I
*I *719:A I *D sky130_fd_sc_hd__clkbuf_1
*CAP
1 a5 0.0005883
2 *719:A 0
3 *14:9 0.0005883
4 *14:9 *15:9 0
*RES
1 a5 *14:9 27.7393 
2 *14:9 *719:A 23 
*END

*D_NET *15 0.0011766
*CONN
*P a6 I
*I *720:A I *D sky130_fd_sc_hd__clkbuf_1
*CAP
1 a6 0.0005883
2 *720:A 0
3 *15:9 0.0005883
4 *15:9 *16:9 0
5 *14:9 *15:9 0
*RES
1 a6 *15:9 27.7393 
2 *15:9 *720:A 23 
*END

*D_NET *16 0.0015168
*CONN
*P a7 I
*I *721:A I *D sky130_fd_sc_hd__clkbuf_1
*CAP
1 a7 0.000602953
2 *721:A 0
3 *16:9 0.000602953
4 *16:9 *17:9 0
5 *16:9 *124:8 7.84825e-05
6 *16:9 *146:14 0.000232409
7 *15:9 *16:9 0
*RES
1 a7 *16:9 28.6921 
2 *16:9 *721:A 23 
*END

*D_NET *17 0.00132133
*CONN
*P a8 I
*I *722:A I *D sky130_fd_sc_hd__clkbuf_1
*CAP
1 a8 0.000589687
2 *722:A 0
3 *17:9 0.000589687
4 *17:9 *146:14 0.00014196
5 *16:9 *17:9 0
*RES
1 a8 *17:9 27.7393 
2 *17:9 *722:A 23 
*END

*D_NET *18 0.00116358
*CONN
*P a9 I
*I *723:A I *D sky130_fd_sc_hd__clkbuf_1
*CAP
1 a9 0.000581788
2 *723:A 0
3 *18:9 0.000581788
4 *18:9 *146:8 0
5 *4:9 *18:9 0
*RES
1 a9 *18:9 27.7393 
2 *18:9 *723:A 23 
*END

*D_NET *19 0.00190788
*CONN
*P b1 I
*I *724:A I *D sky130_fd_sc_hd__clkbuf_1
*CAP
1 b1 0.00068286
2 *724:A 0
3 *19:11 0.00068286
4 *19:11 *733:A 5.50106e-05
5 *19:11 *38:10 0.000487153
6 *19:11 *46:16 0
*RES
1 b1 *19:11 31.6129 
2 *19:11 *724:A 23 
*END

*D_NET *20 0.00100823
*CONN
*P b10 I
*I *725:A I *D sky130_fd_sc_hd__clkbuf_1
*CAP
1 b10 0.000494944
2 *725:A 0.000494944
3 *725:A *726:A 0
4 *725:A *741:A 0
5 *725:A *128:10 1.83408e-05
*RES
1 b10 *725:A 48.2743 
*END

*D_NET *21 0.00100863
*CONN
*P b11 I
*I *726:A I *D sky130_fd_sc_hd__clkbuf_1
*CAP
1 b11 0.000504315
2 *726:A 0.000504315
3 *726:A *728:A 0
4 *725:A *726:A 0
*RES
1 b11 *726:A 48.5643 
*END

*D_NET *22 0.00100427
*CONN
*P b12 I
*I *728:A I *D sky130_fd_sc_hd__clkbuf_1
*CAP
1 b12 0.000502134
2 *728:A 0.000502134
3 *728:A *729:A 0
4 *726:A *728:A 0
*RES
1 b12 *728:A 48.2743 
*END

*D_NET *23 0.000901682
*CONN
*P b13 I
*I *729:A I *D sky130_fd_sc_hd__clkbuf_1
*CAP
1 b13 0.000450841
2 *729:A 0.000450841
3 *729:A *730:A 0
4 *728:A *729:A 0
*RES
1 b13 *729:A 47.3214 
*END

*D_NET *24 0.000901682
*CONN
*P b14 I
*I *730:A I *D sky130_fd_sc_hd__clkbuf_1
*CAP
1 b14 0.000450841
2 *730:A 0.000450841
3 *730:A *731:A 0
4 *729:A *730:A 0
*RES
1 b14 *730:A 47.3214 
*END

*D_NET *25 0.000956134
*CONN
*P b15 I
*I *731:A I *D sky130_fd_sc_hd__clkbuf_1
*CAP
1 b15 0.000448706
2 *731:A 0.000448706
3 *731:A *26:11 5.50106e-05
4 *731:A *134:10 3.7122e-06
5 *730:A *731:A 0
*RES
1 b15 *731:A 47.3214 
*END

*D_NET *26 0.00151422
*CONN
*P b16 I
*I *732:A I *D sky130_fd_sc_hd__clkbuf_1
*CAP
1 b16 0.000721842
2 *732:A 0
3 *26:11 0.000721842
4 *26:11 *134:10 1.14762e-05
5 *26:11 *135:10 4.04598e-06
6 *731:A *26:11 5.50106e-05
*RES
1 b16 *26:11 29.7071 
2 *26:11 *732:A 23 
*END

*D_NET *27 0.000951789
*CONN
*P b2 I
*I *733:A I *D sky130_fd_sc_hd__clkbuf_1
*CAP
1 b2 0.000448389
2 *733:A 0.000448389
3 *733:A *734:A 0
4 *733:A *38:10 0
5 *19:11 *733:A 5.50106e-05
*RES
1 b2 *733:A 47.3214 
*END

*D_NET *28 0.00103098
*CONN
*P b3 I
*I *734:A I *D sky130_fd_sc_hd__clkbuf_1
*CAP
1 b3 0.000500597
2 *734:A 0.000500597
3 *734:A *29:17 0
4 *734:A *137:10 1.83408e-05
5 *734:A *147:10 1.14452e-05
6 *733:A *734:A 0
*RES
1 b3 *734:A 48.2743 
*END

*D_NET *29 0.00114463
*CONN
*P b4 I
*I *735:A I *D sky130_fd_sc_hd__clkbuf_1
*CAP
1 b4 0.000572315
2 *735:A 0
3 *29:17 0.000572315
4 *29:17 *736:A 0
5 *734:A *29:17 0
*RES
1 b4 *29:17 28.2157 
2 *29:17 *735:A 23 
*END

*D_NET *30 0.00090292
*CONN
*P b5 I
*I *736:A I *D sky130_fd_sc_hd__clkbuf_1
*CAP
1 b5 0.00045146
2 *736:A 0.00045146
3 *736:A *737:A 0
4 *29:17 *736:A 0
*RES
1 b5 *736:A 47.3214 
*END

*D_NET *31 0.00100427
*CONN
*P b6 I
*I *737:A I *D sky130_fd_sc_hd__clkbuf_1
*CAP
1 b6 0.000502134
2 *737:A 0.000502134
3 *737:A *739:A 0
4 *736:A *737:A 0
*RES
1 b6 *737:A 48.2743 
*END

*D_NET *32 0.00114539
*CONN
*P b7 I
*I *739:A I *D sky130_fd_sc_hd__clkbuf_1
*CAP
1 b7 0.000562321
2 *739:A 0.000562321
3 *739:A *740:A 0
4 *739:A *142:10 2.07484e-05
5 *737:A *739:A 0
*RES
1 b7 *739:A 49.2271 
*END

*D_NET *33 0.000901682
*CONN
*P b8 I
*I *740:A I *D sky130_fd_sc_hd__clkbuf_1
*CAP
1 b8 0.000450841
2 *740:A 0.000450841
3 *740:A *741:A 0
4 *739:A *740:A 0
*RES
1 b8 *740:A 47.3214 
*END

*D_NET *34 0.00100427
*CONN
*P b9 I
*I *741:A I *D sky130_fd_sc_hd__clkbuf_1
*CAP
1 b9 0.000502134
2 *741:A 0.000502134
3 *725:A *741:A 0
4 *740:A *741:A 0
*RES
1 b9 *741:A 48.2743 
*END

*D_NET *35 0.000731637
*CONN
*P cin I
*I *742:A I *D sky130_fd_sc_hd__buf_1
*CAP
1 cin 0.000365819
2 *742:A 0.000365819
*RES
1 cin *742:A 48.9255 
*END

*D_NET *36 0.0095637
*CONN
*P clk I
*I *708:A I *D sky130_fd_sc_hd__clkbuf_16
*CAP
1 clk 0.00466688
2 *708:A 0
3 *36:17 0.00466688
4 *36:17 *178:16 2.26497e-05
5 *36:17 *181:20 0.000207286
*RES
1 clk *36:17 36.1418 
2 *36:17 *708:A 38 
*END

*D_NET *37 0.00166873
*CONN
*P cout O
*I *749:X O *D sky130_fd_sc_hd__buf_1
*CAP
1 cout 0.000194756
2 *749:X 0.000387665
3 *37:10 0.000582421
4 cout s16 0
5 *37:10 *154:16 1.32939e-05
6 *3:11 *37:10 0.000401899
7 *11:11 *37:10 8.86908e-05
*RES
1 *749:X *37:10 45.3432 
2 *37:10 cout 8.672 
*END

*D_NET *38 0.00161692
*CONN
*P s1 O
*I *750:X O *D sky130_fd_sc_hd__buf_1
*CAP
1 s1 0.000130566
2 *750:X 0.000434316
3 *38:10 0.000564882
4 s1 s2 0
5 s1 *46:16 0
6 *733:A *38:10 0
7 *19:11 *38:10 0.000487153
*RES
1 *750:X *38:10 45.5918 
2 *38:10 s1 8.4144 
*END

*D_NET *39 0.00067083
*CONN
*P s10 O
*I *751:X O *D sky130_fd_sc_hd__buf_1
*CAP
1 s10 0.000313052
2 *751:X 0.000313052
3 s10 s11 0
4 s10 s9 8.14539e-06
5 s10 *53:10 6.71408e-06
6 s10 *72:8 2.98663e-05
*RES
1 *751:X s10 48.3188 
*END

*D_NET *40 0.000736997
*CONN
*P s11 O
*I *752:X O *D sky130_fd_sc_hd__buf_1
*CAP
1 s11 0.00010757
2 *752:X 0.000255666
3 *40:10 0.000363237
4 s11 s12 1.05236e-05
5 *40:10 *149:12 0
6 s10 s11 0
*RES
1 *752:X *40:10 42.0289 
2 *40:10 s11 8.4816 
*END

*D_NET *41 0.000474369
*CONN
*P s12 O
*I *753:X O *D sky130_fd_sc_hd__buf_1
*CAP
1 s12 0.000229129
2 *753:X 0.000229129
3 s12 s13 0
4 s12 *205:16 5.58873e-06
5 s11 s12 1.05236e-05
*RES
1 *753:X s12 47.0789 
*END

*D_NET *42 0.000742135
*CONN
*P s13 O
*I *754:X O *D sky130_fd_sc_hd__buf_1
*CAP
1 s13 0.00010757
2 *754:X 0.000258235
3 *42:10 0.000365806
4 s13 s14 1.05236e-05
5 *42:10 *205:16 0
6 s12 s13 0
*RES
1 *754:X *42:10 42.0289 
2 *42:10 s13 8.4816 
*END

*D_NET *43 0.00120988
*CONN
*P s14 O
*I *755:X O *D sky130_fd_sc_hd__buf_1
*CAP
1 s14 0.000218686
2 *755:X 0.000206124
3 *43:8 0.00042481
4 s14 s15 0
5 *43:8 *44:10 0.000126901
6 *43:8 *153:10 0.000222831
7 s13 s14 1.05236e-05
*RES
1 *755:X *43:8 43.9554 
2 *43:8 s14 8.75787 
*END

*D_NET *44 0.00107166
*CONN
*P s15 O
*I *756:X O *D sky130_fd_sc_hd__buf_1
*CAP
1 s15 0.000187411
2 *756:X 0.000265971
3 *44:10 0.000453382
4 s15 s16 0
5 *44:10 *153:10 2.55628e-05
6 *44:10 *172:14 0
7 s14 s15 0
8 *3:11 *44:10 1.24362e-05
9 *43:8 *44:10 0.000126901
*RES
1 *756:X *44:10 43.1682 
2 *44:10 s15 8.672 
*END

*D_NET *45 0.0019955
*CONN
*P s16 O
*I *757:X O *D sky130_fd_sc_hd__buf_1
*CAP
1 s16 0.000992816
2 *757:X 0.000992816
3 s16 *155:10 9.86551e-06
4 cout s16 0
5 s15 s16 0
*RES
1 *757:X s16 48.3669 
*END

*D_NET *46 0.000723194
*CONN
*P s2 O
*I *758:X O *D sky130_fd_sc_hd__buf_1
*CAP
1 s2 4.64007e-05
2 *758:X 0.000306198
3 *46:16 0.000352598
4 s2 s3 0
5 *46:16 *758:A 5.37348e-06
6 *46:16 *47:16 1.26232e-05
7 s1 s2 0
8 s1 *46:16 0
9 *19:11 *46:16 0
*RES
1 *758:X *46:16 49.9587 
2 *46:16 s2 0.199733 
*END

*D_NET *47 0.000751924
*CONN
*P s3 O
*I *759:X O *D sky130_fd_sc_hd__buf_1
*CAP
1 s3 4.61465e-05
2 *759:X 0.000323504
3 *47:16 0.000369651
4 s3 s4 0
5 *47:16 *156:10 0
6 s2 s3 0
7 *46:16 *47:16 1.26232e-05
*RES
1 *759:X *47:16 49.9587 
2 *47:16 s3 0.199733 
*END

*D_NET *48 0.000872782
*CONN
*P s4 O
*I *760:X O *D sky130_fd_sc_hd__buf_1
*CAP
1 s4 0.000111193
2 *760:X 0.000319936
3 *48:10 0.000431129
4 s4 s5 1.05236e-05
5 *48:10 *115:71 0
6 s3 s4 0
*RES
1 *760:X *48:10 43.4375 
2 *48:10 s4 8.4816 
*END

*D_NET *49 0.000915892
*CONN
*P s5 O
*I *761:X O *D sky130_fd_sc_hd__buf_1
*CAP
1 s5 0.000358412
2 *761:X 0.000358412
3 s5 s6 0
4 s5 *115:71 6.16635e-05
5 s5 *136:12 0.000126882
6 s4 s5 1.05236e-05
*RES
1 *761:X s5 48.7451 
*END

*D_NET *50 0.0006363
*CONN
*P s6 O
*I *762:X O *D sky130_fd_sc_hd__buf_1
*CAP
1 s6 0.000303217
2 *762:X 0.000303217
3 s6 s7 0
4 s6 *115:71 2.98663e-05
5 s5 s6 0
*RES
1 *762:X s6 48.3188 
*END

*D_NET *51 0.000656043
*CONN
*P s7 O
*I *763:X O *D sky130_fd_sc_hd__buf_1
*CAP
1 s7 0.000307458
2 *763:X 0.000307458
3 s7 s8 0
4 s7 *52:16 0
5 s7 *63:10 0
6 s7 *162:18 4.11274e-05
7 s6 s7 0
*RES
1 *763:X s7 48.4875 
*END

*D_NET *52 0.00072489
*CONN
*P s8 O
*I *764:X O *D sky130_fd_sc_hd__buf_1
*CAP
1 s8 4.64007e-05
2 *764:X 0.000313535
3 *52:16 0.000359936
4 s8 s9 0
5 *52:16 s9 5.01799e-06
6 s7 s8 0
7 s7 *52:16 0
*RES
1 *764:X *52:16 49.9587 
2 *52:16 s8 0.199733 
*END

*D_NET *53 0.00102144
*CONN
*P s9 O
*I *765:X O *D sky130_fd_sc_hd__buf_1
*CAP
1 s9 0.000118228
2 *765:X 0.000382555
3 *53:10 0.000500783
4 *53:10 *72:8 0
5 s10 s9 8.14539e-06
6 s10 *53:10 6.71408e-06
7 s8 s9 0
8 *52:16 s9 5.01799e-06
*RES
1 *765:X *53:10 43.4582 
2 *53:10 s9 8.4816 
*END

*D_NET *54 0.000630828
*CONN
*I *630:B1 I *D sky130_fd_sc_hd__a21oi_2
*I *629:X O *D sky130_fd_sc_hd__and2b_1
*CAP
1 *630:B1 0
2 *629:X 0.000213919
3 *54:8 0.000213919
4 *54:8 *646:A 1.46286e-05
5 *54:8 *646:B 9.91701e-05
6 *54:8 *145:14 3.24862e-05
7 *54:8 *194:10 5.67058e-05
*RES
1 *629:X *54:8 27.4536 
2 *54:8 *630:B1 23 
*END

*D_NET *55 0.00329633
*CONN
*I *631:B I *D sky130_fd_sc_hd__xnor2_1
*I *632:A_N I *D sky130_fd_sc_hd__and2b_1
*I *630:Y O *D sky130_fd_sc_hd__a21oi_2
*CAP
1 *631:B 0.000607511
2 *632:A_N 0.000528877
3 *630:Y 0.000182979
4 *55:8 0.00131937
5 *631:B *647:B 0
6 *631:B *680:CLK 2.07484e-05
7 *631:B *684:D 0.000113442
8 *631:B *56:8 3.91683e-06
9 *631:B *118:127 8.32833e-05
10 *631:B *163:12 0
11 *631:B *196:28 5.83896e-05
12 *632:A_N *684:CLK 2.93845e-05
13 *632:A_N *684:D 8.47092e-05
14 *632:A_N *57:10 0.000106277
15 *632:A_N *192:10 8.37178e-05
16 *632:A_N *196:18 7.37278e-05
17 *55:8 *647:B 0
18 *55:8 *163:12 0
19 *55:8 *186:8 0
*RES
1 *630:Y *55:8 40.61 
2 *55:8 *632:A_N 48.6264 
3 *55:8 *631:B 48.0464 
*END

*D_NET *56 0.00251406
*CONN
*I *633:A2 I *D sky130_fd_sc_hd__a21oi_2
*I *647:B I *D sky130_fd_sc_hd__xor2_1
*I *631:Y O *D sky130_fd_sc_hd__xnor2_1
*CAP
1 *633:A2 0.000184529
2 *647:B 8.42377e-05
3 *631:Y 0.000446275
4 *56:8 0.000715042
5 *633:A2 *688:D 0.000246023
6 *633:A2 *58:8 0.000261279
7 *633:A2 *196:28 6.4034e-05
8 *647:B *58:8 0.000113414
9 *647:B *186:8 1.69668e-05
10 *647:B *196:28 3.88629e-05
11 *56:8 *680:CLK 2.46906e-05
12 *56:8 *680:D 5.97898e-05
13 *56:8 *688:D 5.58003e-05
14 *56:8 *118:127 0.000199199
15 *631:B *647:B 0
16 *631:B *56:8 3.91683e-06
17 *55:8 *647:B 0
*RES
1 *631:Y *56:8 44.3386 
2 *56:8 *647:B 40.2579 
3 *56:8 *633:A2 43.2407 
*END

*D_NET *57 0.00206119
*CONN
*I *633:B1 I *D sky130_fd_sc_hd__a21oi_2
*I *632:X O *D sky130_fd_sc_hd__and2b_1
*CAP
1 *633:B1 0.000422648
2 *632:X 0.000435702
3 *57:10 0.00085835
4 *633:B1 *686:D 0.000238209
5 *632:A_N *57:10 0.000106277
*RES
1 *632:X *57:10 45.1257 
2 *57:10 *633:B1 45.2914 
*END

*D_NET *58 0.00208021
*CONN
*I *635:A_N I *D sky130_fd_sc_hd__and2b_1
*I *634:B I *D sky130_fd_sc_hd__xnor2_1
*I *633:Y O *D sky130_fd_sc_hd__a21oi_2
*CAP
1 *635:A_N 0
2 *634:B 0.000200968
3 *633:Y 0.000229884
4 *58:12 0.000396615
5 *58:8 0.000425531
6 *634:B *635:B 8.86665e-05
7 *634:B *60:10 9.82009e-05
8 *634:B *197:10 2.93845e-05
9 *58:8 *688:D 3.7707e-05
10 *58:8 *186:8 5.31905e-05
11 *58:12 *684:CLK 3.34247e-05
12 *58:12 *197:10 0.000111943
13 *633:A2 *58:8 0.000261279
14 *647:B *58:8 0.000113414
*RES
1 *633:Y *58:8 44.1314 
2 *58:8 *58:12 18.48 
3 *58:12 *634:B 27.3293 
4 *58:12 *635:A_N 23 
*END

*D_NET *59 0.00137926
*CONN
*I *636:A2 I *D sky130_fd_sc_hd__a21o_1
*I *656:B I *D sky130_fd_sc_hd__xor2_1
*I *634:Y O *D sky130_fd_sc_hd__xnor2_1
*CAP
1 *636:A2 9.45875e-05
2 *656:B 3.32924e-05
3 *634:Y 0.000301207
4 *59:14 0.00012788
5 *59:12 0.000301207
6 *636:A2 *636:B1 0.000103867
7 *636:A2 *656:A 0.000202859
8 *636:A2 *199:18 4.44329e-05
9 *656:B *656:A 3.05276e-05
10 *656:B *204:10 5.22448e-05
11 *59:12 *198:8 8.71559e-05
*RES
1 *634:Y *59:12 43.4893 
2 *59:12 *59:14 15 
3 *59:14 *656:B 24.0979 
4 *59:14 *636:A2 26.8736 
*END

*D_NET *60 0.00147596
*CONN
*I *636:B1 I *D sky130_fd_sc_hd__a21o_1
*I *635:X O *D sky130_fd_sc_hd__and2b_1
*CAP
1 *636:B1 0.000156991
2 *635:X 0.000260379
3 *60:10 0.00041737
4 *636:B1 *199:18 4.15957e-05
5 *60:10 *141:14 0.000347037
6 *60:10 *197:10 5.0518e-05
7 *634:B *60:10 9.82009e-05
8 *636:A2 *636:B1 0.000103867
*RES
1 *635:X *60:10 43.8207 
2 *60:10 *636:B1 41.5007 
*END

*D_NET *61 0.00537928
*CONN
*I *638:B I *D sky130_fd_sc_hd__xnor2_1
*I *637:Y O *D sky130_fd_sc_hd__nand2_1
*CAP
1 *638:B 0
2 *637:Y 0.000357
3 *61:14 0.00104009
4 *61:8 0.00139709
5 *61:8 *148:6 0.00049088
6 *61:14 *74:8 3.95187e-05
7 *61:14 *79:10 8.29264e-05
8 *61:14 *81:12 0
9 *61:14 *174:27 0.00197179
10 *61:14 *201:16 0
11 *61:14 *202:29 0
12 *61:14 *206:10 0
*RES
1 *637:Y *61:8 43.3857 
2 *61:8 *61:14 41.0171 
3 *61:14 *638:B 23 
*END

*D_NET *62 0.00140849
*CONN
*I *640:B I *D sky130_fd_sc_hd__and2_1
*I *639:X O *D sky130_fd_sc_hd__or2_1
*CAP
1 *640:B 0
2 *639:X 0.000181529
3 *62:8 0.000181529
4 *62:8 *591:B1 5.3304e-05
5 *62:8 *74:12 0.000226484
6 *62:8 *75:12 0.000142678
7 *62:8 *164:22 0.000577812
8 *62:8 *206:27 1.46205e-05
9 *62:8 *206:43 3.05357e-05
*RES
1 *639:X *62:8 29.8357 
2 *62:8 *640:B 23 
*END

*D_NET *63 0.00127117
*CONN
*I *641:A I *D sky130_fd_sc_hd__clkbuf_1
*I *640:X O *D sky130_fd_sc_hd__and2_1
*CAP
1 *641:A 0
2 *640:X 0.000605827
3 *63:10 0.000605827
4 *63:10 *75:12 2.95526e-05
5 *63:10 *75:18 2.99613e-05
6 *63:10 *136:12 0
7 *63:10 *206:10 0
8 *63:10 *217:8 0
9 s7 *63:10 0
*RES
1 *640:X *63:10 49.3307 
2 *63:10 *641:A 38 
*END

*D_NET *64 0.00107567
*CONN
*I *643:B I *D sky130_fd_sc_hd__xor2_1
*I *642:X O *D sky130_fd_sc_hd__and2b_1
*CAP
1 *643:B 0.000110066
2 *642:X 0.000202319
3 *64:8 0.000312385
4 *643:B *643:A 0.000100069
5 *643:B *202:10 1.84917e-05
6 *64:8 *202:10 0.00029486
7 *64:8 *206:10 1.6891e-05
8 *64:8 *206:27 2.05858e-05
*RES
1 *642:X *64:8 43.075 
2 *64:8 *643:B 40.0507 
*END

*D_NET *65 0.00211495
*CONN
*I *653:B I *D sky130_fd_sc_hd__xnor2_1