*SPEF "ieee 1481-1999"
*DESIGN "adder"
*DATE "11:13:46 Thursday April 17, 2025"
*VENDOR "The OpenROAD Project"
*PROGRAM "OpenROAD"
*VERSION "b16bda7e82721d10566ff7e2b68f1ff0be9f9e38"
*DESIGN_FLOW "NAME_SCOPE LOCAL" "PIN_CAP NONE"
*DIVIDER /
*DELIMITER :
*BUS_DELIMITER []
*T_UNIT 1 NS
*C_UNIT 1 PF
*R_UNIT 1 OHM
*L_UNIT 1 HENRY

*NAME_MAP
*3 a[0]
*4 a[10]
*5 a[11]
*6 a[12]
*7 a[13]
*8 a[14]
*9 a[15]
*10 a[1]
*11 a[2]
*12 a[3]
*13 a[4]
*14 a[5]
*15 a[6]
*16 a[7]
*17 a[8]
*18 a[9]
*19 b[0]
*20 b[10]
*21 b[11]
*22 b[12]
*23 b[13]
*24 b[14]
*25 b[15]
*26 b[1]
*27 b[2]
*28 b[3]
*29 b[4]
*30 b[5]
*31 b[6]
*32 b[7]
*33 b[8]
*34 b[9]
*35 cin
*36 clk
*37 sum[0]
*38 sum[10]
*39 sum[11]
*40 sum[12]
*41 sum[13]
*42 sum[14]
*43 sum[15]
*44 sum[16]
*45 sum[1]
*46 sum[2]
*47 sum[3]
*48 sum[4]
*49 sum[5]
*50 sum[6]
*51 sum[7]
*52 sum[8]
*53 sum[9]
*54 _000_
*55 _001_
*56 _002_
*57 _003_
*58 _004_
*59 _005_
*60 _006_
*61 _007_
*62 _008_
*63 _009_
*64 _010_
*65 _011_
*66 _012_
*67 _013_
*68 _014_
*69 _015_
*70 _016_
*71 _017_
*72 _018_
*73 _019_
*74 _020_
*75 _021_
*76 _022_
*77 _023_
*78 _024_
*79 _025_
*80 _026_
*81 _027_
*82 _028_
*83 _029_
*84 _030_
*85 _031_
*86 _032_
*87 _033_
*88 _034_
*89 _035_
*90 _036_
*91 _037_
*92 _038_
*93 _039_
*94 _040_
*95 _041_
*96 _042_
*97 _043_
*98 _044_
*99 _045_
*100 _046_
*101 _047_
*102 _048_
*103 _049_
*104 _050_
*105 _051_
*106 _052_
*107 _053_
*108 _054_
*109 _055_
*110 _056_
*111 _057_
*112 _058_
*113 _059_
*114 _060_
*115 _061_
*116 _062_
*117 _063_
*118 _064_
*119 _065_
*120 _066_
*121 _067_
*122 _068_
*123 _069_
*124 _070_
*125 _071_
*126 _072_
*127 _073_
*128 _074_
*129 a_q\[0\]
*130 a_q\[10\]
*131 a_q\[11\]
*132 a_q\[12\]
*133 a_q\[13\]
*134 a_q\[14\]
*135 a_q\[15\]
*136 a_q\[1\]
*137 a_q\[2\]
*138 a_q\[3\]
*139 a_q\[4\]
*140 a_q\[5\]
*141 a_q\[6\]
*142 a_q\[7\]
*143 a_q\[8\]
*144 a_q\[9\]
*145 b_q\[0\]
*146 b_q\[10\]
*147 b_q\[11\]
*148 b_q\[12\]
*149 b_q\[13\]
*150 b_q\[14\]
*151 b_q\[15\]
*152 b_q\[1\]
*153 b_q\[2\]
*154 b_q\[3\]
*155 b_q\[4\]
*156 b_q\[5\]
*157 b_q\[6\]
*158 b_q\[7\]
*159 b_q\[8\]
*160 b_q\[9\]
*161 cin_q
*162 clknet_0_clk
*163 clknet_2_0__leaf_clk
*164 clknet_2_1__leaf_clk
*165 clknet_2_2__leaf_clk
*166 clknet_2_3__leaf_clk
*167 net1
*168 net10
*169 net11
*170 net12
*171 net13
*172 net14
*173 net15
*174 net16
*175 net17
*176 net18
*177 net19
*178 net2
*179 net20
*180 net21
*181 net22
*182 net23
*183 net24
*184 net25
*185 net26
*186 net27
*187 net28
*188 net29
*189 net3
*190 net30
*191 net31
*192 net32
*193 net33
*194 net34
*195 net35
*196 net36
*197 net37
*198 net38
*199 net39
*200 net4
*201 net40
*202 net41
*203 net42
*204 net43
*205 net44
*206 net45
*207 net46
*208 net47
*209 net48
*210 net49
*211 net5
*212 net50
*213 net51
*214 net52
*215 net53
*216 net54
*217 net55
*218 net56
*219 net57
*220 net58
*221 net59
*222 net6
*223 net7
*224 net8
*225 net9
*226 sum_d\[0\]
*227 sum_d\[10\]
*228 sum_d\[11\]
*229 sum_d\[12\]
*230 sum_d\[13\]
*231 sum_d\[14\]
*232 sum_d\[15\]
*233 sum_d\[16\]
*234 sum_d\[1\]
*235 sum_d\[2\]
*236 sum_d\[3\]
*237 sum_d\[4\]
*238 sum_d\[5\]
*239 sum_d\[6\]
*240 sum_d\[7\]
*241 sum_d\[8\]
*242 sum_d\[9\]
*243 FILLER_0_0_102
*244 FILLER_0_0_111
*245 FILLER_0_0_113
*246 FILLER_0_0_120
*247 FILLER_0_0_32
*248 FILLER_0_0_55
*249 FILLER_0_0_60
*250 FILLER_0_0_88
*251 FILLER_0_0_93
*252 FILLER_0_10_121
*253 FILLER_0_10_129
*254 FILLER_0_10_19
*255 FILLER_0_10_27
*256 FILLER_0_10_45
*257 FILLER_0_10_6
*258 FILLER_0_10_72
*259 FILLER_0_10_85
*260 FILLER_0_11_111
*261 FILLER_0_11_113
*262 FILLER_0_11_125
*263 FILLER_0_11_131
*264 FILLER_0_11_18
*265 FILLER_0_11_29
*266 FILLER_0_11_41
*267 FILLER_0_11_53
*268 FILLER_0_11_57
*269 FILLER_0_11_6
*270 FILLER_0_11_65
*271 FILLER_0_11_87
*272 FILLER_0_12_101
*273 FILLER_0_12_108
*274 FILLER_0_12_120
*275 FILLER_0_12_27
*276 FILLER_0_12_29
*277 FILLER_0_12_46
*278 FILLER_0_12_63
*279 FILLER_0_12_83
*280 FILLER_0_12_97
*281 FILLER_0_13_109
*282 FILLER_0_13_123
*283 FILLER_0_13_131
*284 FILLER_0_13_15
*285 FILLER_0_13_19
*286 FILLER_0_13_26
*287 FILLER_0_13_34
*288 FILLER_0_13_52
*289 FILLER_0_13_57
*290 FILLER_0_13_63
*291 FILLER_0_13_9
*292 FILLER_0_14_131
*293 FILLER_0_14_19
*294 FILLER_0_14_27
*295 FILLER_0_14_29
*296 FILLER_0_14_37
*297 FILLER_0_14_56
*298 FILLER_0_14_85
*299 FILLER_0_14_97
*300 FILLER_0_15_113
*301 FILLER_0_15_125
*302 FILLER_0_15_131
*303 FILLER_0_15_15
*304 FILLER_0_15_3
*305 FILLER_0_15_53
*306 FILLER_0_15_57
*307 FILLER_0_15_69
*308 FILLER_0_15_80
*309 FILLER_0_15_92
*310 FILLER_0_15_98
*311 FILLER_0_16_10
*312 FILLER_0_16_130
*313 FILLER_0_16_27
*314 FILLER_0_16_29
*315 FILLER_0_16_41
*316 FILLER_0_16_53
*317 FILLER_0_16_6
*318 FILLER_0_16_65
*319 FILLER_0_16_77
*320 FILLER_0_16_83
*321 FILLER_0_16_85
*322 FILLER_0_16_89
*323 FILLER_0_17_111
*324 FILLER_0_17_119
*325 FILLER_0_17_22
*326 FILLER_0_17_34
*327 FILLER_0_17_54
*328 FILLER_0_17_57
*329 FILLER_0_17_69
*330 FILLER_0_17_81
*331 FILLER_0_17_93
*332 FILLER_0_18_103
*333 FILLER_0_18_131
*334 FILLER_0_18_19
*335 FILLER_0_18_27
*336 FILLER_0_18_29
*337 FILLER_0_18_41
*338 FILLER_0_18_47
*339 FILLER_0_18_80
*340 FILLER_0_19_107
*341 FILLER_0_19_23
*342 FILLER_0_19_35
*343 FILLER_0_19_39
*344 FILLER_0_19_57
*345 FILLER_0_19_6
*346 FILLER_0_19_65
*347 FILLER_0_19_84
*348 FILLER_0_1_106
*349 FILLER_0_1_12
*350 FILLER_0_1_129
*351 FILLER_0_1_34
*352 FILLER_0_1_57
*353 FILLER_0_20_101
*354 FILLER_0_20_113
*355 FILLER_0_20_131
*356 FILLER_0_20_29
*357 FILLER_0_20_51
*358 FILLER_0_20_71
*359 FILLER_0_20_83
*360 FILLER_0_21_102
*361 FILLER_0_21_111
*362 FILLER_0_21_113
*363 FILLER_0_21_120
*364 FILLER_0_21_32
*365 FILLER_0_21_39
*366 FILLER_0_21_48
*367 FILLER_0_21_60
*368 FILLER_0_21_66
*369 FILLER_0_21_75
*370 FILLER_0_21_85
*371 FILLER_0_21_89
*372 FILLER_0_21_93
*373 FILLER_0_2_105
*374 FILLER_0_2_122
*375 FILLER_0_2_130
*376 FILLER_0_2_19
*377 FILLER_0_2_27
*378 FILLER_0_2_45
*379 FILLER_0_2_49
*380 FILLER_0_2_66
*381 FILLER_0_2_78
*382 FILLER_0_2_85
*383 FILLER_0_2_97
*384 FILLER_0_3_105
*385 FILLER_0_3_111
*386 FILLER_0_3_113
*387 FILLER_0_3_125
*388 FILLER_0_3_131
*389 FILLER_0_3_19
*390 FILLER_0_3_38
*391 FILLER_0_3_50
*392 FILLER_0_3_57
*393 FILLER_0_3_69
*394 FILLER_0_3_81
*395 FILLER_0_3_93
*396 FILLER_0_4_109
*397 FILLER_0_4_121
*398 FILLER_0_4_129
*399 FILLER_0_4_21
*400 FILLER_0_4_27
*401 FILLER_0_4_29
*402 FILLER_0_4_41
*403 FILLER_0_4_53
*404 FILLER_0_4_70
*405 FILLER_0_4_75
*406 FILLER_0_4_83
*407 FILLER_0_4_85
*408 FILLER_0_4_9
*409 FILLER_0_4_97
*410 FILLER_0_5_101
*411 FILLER_0_5_109
*412 FILLER_0_5_113
*413 FILLER_0_5_125
*414 FILLER_0_5_131
*415 FILLER_0_5_19
*416 FILLER_0_5_23
*417 FILLER_0_5_47
*418 FILLER_0_5_57
*419 FILLER_0_5_61
*420 FILLER_0_6_11
*421 FILLER_0_6_120
*422 FILLER_0_6_3
*423 FILLER_0_6_32
*424 FILLER_0_6_75
*425 FILLER_0_6_83
*426 FILLER_0_6_85
*427 FILLER_0_6_97
*428 FILLER_0_7_113
*429 FILLER_0_7_131
*430 FILLER_0_7_17
*431 FILLER_0_7_57
*432 FILLER_0_7_61
*433 FILLER_0_7_83
*434 FILLER_0_7_9
*435 FILLER_0_7_95
*436 FILLER_0_8_110
*437 FILLER_0_8_114
*438 FILLER_0_8_131
*439 FILLER_0_8_19
*440 FILLER_0_8_27
*441 FILLER_0_8_32
*442 FILLER_0_8_37
*443 FILLER_0_8_49
*444 FILLER_0_8_53
*445 FILLER_0_8_72
*446 FILLER_0_8_85
*447 FILLER_0_8_97
*448 FILLER_0_9_101
*449 FILLER_0_9_111
*450 FILLER_0_9_113
*451 FILLER_0_9_125
*452 FILLER_0_9_131
*453 FILLER_0_9_3
*454 FILLER_0_9_30
*455 FILLER_0_9_42
*456 FILLER_0_9_48
*457 FILLER_0_9_57
*458 FILLER_0_9_80
*459 FILLER_0_9_9
*460 FILLER_0_9_92
*461 PHY_EDGE_ROW_0_Left_22
*462 PHY_EDGE_ROW_0_Right_0
*463 PHY_EDGE_ROW_10_Left_32
*464 PHY_EDGE_ROW_10_Right_10
*465 PHY_EDGE_ROW_11_Left_33
*466 PHY_EDGE_ROW_11_Right_11
*467 PHY_EDGE_ROW_12_Left_34
*468 PHY_EDGE_ROW_12_Right_12
*469 PHY_EDGE_ROW_13_Left_35
*470 PHY_EDGE_ROW_13_Right_13
*471 PHY_EDGE_ROW_14_Left_36
*472 PHY_EDGE_ROW_14_Right_14
*473 PHY_EDGE_ROW_15_Left_37
*474 PHY_EDGE_ROW_15_Right_15
*475 PHY_EDGE_ROW_16_Left_38
*476 PHY_EDGE_ROW_16_Right_16
*477 PHY_EDGE_ROW_17_Left_39
*478 PHY_EDGE_ROW_17_Right_17
*479 PHY_EDGE_ROW_18_Left_40
*480 PHY_EDGE_ROW_18_Right_18
*481 PHY_EDGE_ROW_19_Left_41
*482 PHY_EDGE_ROW_19_Right_19
*483 PHY_EDGE_ROW_1_Left_23
*484 PHY_EDGE_ROW_1_Right_1
*485 PHY_EDGE_ROW_20_Left_42
*486 PHY_EDGE_ROW_20_Right_20
*487 PHY_EDGE_ROW_21_Left_43
*488 PHY_EDGE_ROW_21_Right_21
*489 PHY_EDGE_ROW_2_Left_24
*490 PHY_EDGE_ROW_2_Right_2
*491 PHY_EDGE_ROW_3_Left_25
*492 PHY_EDGE_ROW_3_Right_3
*493 PHY_EDGE_ROW_4_Left_26
*494 PHY_EDGE_ROW_4_Right_4
*495 PHY_EDGE_ROW_5_Left_27
*496 PHY_EDGE_ROW_5_Right_5
*497 PHY_EDGE_ROW_6_Left_28
*498 PHY_EDGE_ROW_6_Right_6
*499 PHY_EDGE_ROW_7_Left_29
*500 PHY_EDGE_ROW_7_Right_7
*501 PHY_EDGE_ROW_8_Left_30
*502 PHY_EDGE_ROW_8_Right_8
*503 PHY_EDGE_ROW_9_Left_31
*504 PHY_EDGE_ROW_9_Right_9
*505 TAP_TAPCELL_ROW_0_44
*506 TAP_TAPCELL_ROW_0_45
*507 TAP_TAPCELL_ROW_0_46
*508 TAP_TAPCELL_ROW_0_47
*509 TAP_TAPCELL_ROW_10_66
*510 TAP_TAPCELL_ROW_10_67
*511 TAP_TAPCELL_ROW_11_68
*512 TAP_TAPCELL_ROW_11_69
*513 TAP_TAPCELL_ROW_12_70
*514 TAP_TAPCELL_ROW_12_71
*515 TAP_TAPCELL_ROW_13_72
*516 TAP_TAPCELL_ROW_13_73
*517 TAP_TAPCELL_ROW_14_74
*518 TAP_TAPCELL_ROW_14_75
*519 TAP_TAPCELL_ROW_15_76
*520 TAP_TAPCELL_ROW_15_77
*521 TAP_TAPCELL_ROW_16_78
*522 TAP_TAPCELL_ROW_16_79
*523 TAP_TAPCELL_ROW_17_80
*524 TAP_TAPCELL_ROW_17_81
*525 TAP_TAPCELL_ROW_18_82
*526 TAP_TAPCELL_ROW_18_83
*527 TAP_TAPCELL_ROW_19_84
*528 TAP_TAPCELL_ROW_19_85
*529 TAP_TAPCELL_ROW_1_48
*530 TAP_TAPCELL_ROW_1_49
*531 TAP_TAPCELL_ROW_20_86
*532 TAP_TAPCELL_ROW_20_87
*533 TAP_TAPCELL_ROW_21_88
*534 TAP_TAPCELL_ROW_21_89
*535 TAP_TAPCELL_ROW_21_90
*536 TAP_TAPCELL_ROW_21_91
*537 TAP_TAPCELL_ROW_2_50
*538 TAP_TAPCELL_ROW_2_51
*539 TAP_TAPCELL_ROW_3_52
*540 TAP_TAPCELL_ROW_3_53
*541 TAP_TAPCELL_ROW_4_54
*542 TAP_TAPCELL_ROW_4_55
*543 TAP_TAPCELL_ROW_5_56
*544 TAP_TAPCELL_ROW_5_57
*545 TAP_TAPCELL_ROW_6_58
*546 TAP_TAPCELL_ROW_6_59
*547 TAP_TAPCELL_ROW_7_60
*548 TAP_TAPCELL_ROW_7_61
*549 TAP_TAPCELL_ROW_8_62
*550 TAP_TAPCELL_ROW_8_63
*551 TAP_TAPCELL_ROW_9_64
*552 TAP_TAPCELL_ROW_9_65
*553 _075_
*554 _076_
*555 _077_
*556 _078_
*557 _079_
*558 _080_
*559 _081_
*560 _082_
*561 _083_
*562 _084_
*563 _085_
*564 _086_
*565 _087_
*566 _088_
*567 _089_
*568 _090_
*569 _091_
*570 _092_
*571 _093_
*572 _094_
*573 _095_
*574 _096_
*575 _097_
*576 _098_
*577 _099_
*578 _100_
*579 _101_
*580 _102_
*581 _103_
*582 _104_
*583 _105_
*584 _106_
*585 _107_
*586 _108_
*587 _109_
*588 _110_
*589 _111_
*590 _112_
*591 _113_
*592 _114_
*593 _115_
*594 _116_
*595 _117_
*596 _118_
*597 _119_
*598 _120_
*599 _121_
*600 _122_
*601 _123_
*602 _124_
*603 _125_
*604 _126_
*605 _127_
*606 _128_
*607 _129_
*608 _130_
*609 _131_
*610 _132_
*611 _133_
*612 _134_
*613 _135_
*614 _136_
*615 _137_
*616 _138_
*617 _139_
*618 _140_
*619 _141_
*620 _142_
*621 _143_
*622 _144_
*623 _145_
*624 _146_
*625 _147_
*626 _148_
*627 _149_
*628 _150_
*629 _151_
*630 _152_
*631 _153_
*632 _154_
*633 _155_
*634 _156_
*635 _157_
*636 _158_
*637 _159_
*638 _160_
*639 _161_
*640 _162_
*641 _163_
*642 _164_
*643 _165_
*644 _166_
*645 _167_
*646 _168_
*647 _169_
*648 _170_
*649 _171_
*650 _172_
*651 _173_
*652 _174_
*653 _175_
*654 _176_
*655 _177_
*656 _178_
*657 _179_
*658 _180_
*659 _181_
*660 _182_
*661 _183_
*662 _184_
*663 _185_
*664 _186_
*665 _187_
*666 _188_
*667 _189_
*668 _190_
*669 _191_
*670 _192_
*671 _193_
*672 _194_
*673 _195_
*674 _196_
*675 _197_
*676 _198_
*677 _199_
*678 _200_
*679 _201_
*680 _202_
*681 _203_
*682 _204_
*683 _205_
*684 _206_
*685 _207_
*686 _208_
*687 _209_
*688 _210_
*689 _211_
*690 _212_
*691 _213_
*692 _214_
*693 _215_
*694 _216_
*695 clkbuf_0_clk
*696 clkbuf_2_0__f_clk
*697 clkbuf_2_1__f_clk
*698 clkbuf_2_2__f_clk
*699 clkbuf_2_3__f_clk
*700 clkload0
*701 clkload1
*702 clkload2
*703 input1
*704 input10
*705 input11
*706 input12
*707 input13
*708 input14
*709 input15
*710 input16
*711 input17
*712 input18
*713 input19
*714 input2
*715 input20
*716 input21
*717 input22
*718 input23
*719 input24
*720 input25
*721 input26
*722 input27
*723 input28
*724 input29
*725 input3
*726 input30
*727 input31
*728 input32
*729 input33
*730 input4
*731 input5
*732 input6
*733 input7
*734 input8
*735 input9
*736 output34
*737 output35
*738 output36
*739 output37
*740 output38
*741 output39
*742 output40
*743 output41
*744 output42
*745 output43
*746 output44
*747 output45
*748 output46
*749 output47
*750 output48
*751 output49
*752 output50
*753 rebuffer1
*754 rebuffer2
*755 rebuffer3
*756 rebuffer4
*757 rebuffer5
*758 rebuffer6
*759 rebuffer7
*760 rebuffer8
*761 rebuffer9

*PORTS
a[0] I
a[10] I
a[11] I
a[12] I
a[13] I
a[14] I
a[15] I
a[1] I
a[2] I
a[3] I
a[4] I
a[5] I
a[6] I
a[7] I
a[8] I
a[9] I
b[0] I
b[10] I
b[11] I
b[12] I
b[13] I
b[14] I
b[15] I
b[1] I
b[2] I
b[3] I
b[4] I
b[5] I
b[6] I
b[7] I
b[8] I
b[9] I
cin I
clk I
sum[0] O
sum[10] O
sum[11] O
sum[12] O
sum[13] O
sum[14] O
sum[15] O
sum[16] O
sum[1] O
sum[2] O
sum[3] O
sum[4] O
sum[5] O
sum[6] O
sum[7] O
sum[8] O
sum[9] O

*D_NET *3 0.00129572
*CONN
*P a[0] I
*I *703:A I *D sky130_fd_sc_hd__clkbuf_1
*CAP
1 a[0] 0.000647861
2 *703:A 0
3 *3:9 0.000647861
4 *3:9 *10:13 0
5 *3:9 *167:14 0
*RES
1 a[0] *3:9 28.5679 
2 *3:9 *703:A 23 
*END

*D_NET *4 0.00136373
*CONN
*P a[10] I
*I *714:A I *D sky130_fd_sc_hd__clkbuf_1
*CAP
1 a[10] 0.000664739
2 *714:A 0
3 *4:11 0.000664739
4 *4:11 *5:9 0
5 *4:11 *18:9 0
6 *4:11 *178:10 3.42479e-05
*RES
1 a[10] *4:11 29.1893 
2 *4:11 *714:A 23 
*END

*D_NET *5 0.00113869
*CONN
*P a[11] I
*I *725:A I *D sky130_fd_sc_hd__clkbuf_1
*CAP
1 a[11] 0.000569344
2 *725:A 0
3 *5:9 0.000569344
4 *5:9 *6:9 0
5 *4:11 *5:9 0
*RES
1 a[11] *5:9 27.1386 
2 *5:9 *725:A 23 
*END

*D_NET *6 0.00113745
*CONN
*P a[12] I
*I *730:A I *D sky130_fd_sc_hd__clkbuf_1
*CAP
1 a[12] 0.000568726
2 *730:A 0
3 *6:9 0.000568726
4 *6:9 *7:9 0
5 *6:9 *200:14 0
6 *5:9 *6:9 0
*RES
1 a[12] *6:9 27.1386 
2 *6:9 *730:A 23 
*END

*D_NET *7 0.00127732
*CONN
*P a[13] I
*I *731:A I *D sky130_fd_sc_hd__clkbuf_1
*CAP
1 a[13] 0.000629046
2 *731:A 0
3 *7:9 0.000629046
4 *7:9 *200:14 0
5 *7:9 *211:10 1.92253e-05
6 *6:9 *7:9 0
*RES
1 a[13] *7:9 28.0914 
2 *7:9 *731:A 23 
*END

*D_NET *8 0.00125107
*CONN
*P a[14] I
*I *732:A I *D sky130_fd_sc_hd__clkbuf_1
*CAP
1 a[14] 0.000462324
2 *732:A 0
3 *8:9 0.000462324
4 *8:9 *9:9 0.000326421
5 *8:9 *223:10 0
*RES
1 a[14] *8:9 28.0914 
2 *8:9 *732:A 23 
*END

*D_NET *9 0.00124096
*CONN
*P a[15] I
*I *733:A I *D sky130_fd_sc_hd__clkbuf_1
*CAP
1 a[15] 0.000457269
2 *733:A 0
3 *9:9 0.000457269
4 *8:9 *9:9 0.000326421
*RES
1 a[15] *9:9 28.0914 
2 *9:9 *733:A 23 
*END

*D_NET *10 0.0018065
*CONN
*P a[1] I
*I *734:A I *D sky130_fd_sc_hd__clkbuf_1
*CAP
1 a[1] 0.000733463
2 *734:A 0
3 *10:13 0.000733463
4 *10:13 sum[15] 1.10864e-05
5 *10:13 *11:9 0
6 *10:13 *164:65 9.7909e-05
7 *10:13 *167:14 0
8 *10:13 *199:8 4.41821e-06
9 *10:13 *201:12 5.45644e-05
10 *10:13 *224:8 0.000171599
11 *3:9 *10:13 0
*RES
1 a[1] *10:13 31.5507 
2 *10:13 *734:A 23 
*END

*D_NET *11 0.00161465
*CONN
*P a[2] I
*I *735:A I *D sky130_fd_sc_hd__clkbuf_1
*CAP
1 a[2] 0.000632971
2 *735:A 0
3 *11:9 0.000632971
4 *11:9 *12:11 0
5 *11:9 *44:10 0.000202513
6 *11:9 *136:10 0.000146197
7 *10:13 *11:9 0
*RES
1 a[2] *11:9 29.9971 
2 *11:9 *735:A 23 
*END

*D_NET *12 0.00145292
*CONN
*P a[3] I
*I *704:A I *D sky130_fd_sc_hd__clkbuf_1
*CAP
1 a[3] 0.000701629
2 *704:A 0
3 *12:11 0.000701629
4 *12:11 *13:9 0
5 *12:11 *44:10 0
6 *12:11 *136:10 4.9662e-05
7 *11:9 *12:11 0
*RES
1 a[3] *12:11 29.1893 
2 *12:11 *704:A 23 
*END

*D_NET *13 0.0011404
*CONN
*P a[4] I
*I *705:A I *D sky130_fd_sc_hd__clkbuf_1
*CAP
1 a[4] 0.000570198
2 *705:A 0
3 *13:9 0.000570198
4 *13:9 *743:A 0
5 *13:9 *14:9 0
6 *12:11 *13:9 0
*RES
1 a[4] *13:9 27.1386 
2 *13:9 *705:A 23 
*END

*D_NET *14 0.00125295
*CONN
*P a[5] I
*I *706:A I *D sky130_fd_sc_hd__clkbuf_1
*CAP
1 a[5] 0.000626475
2 *706:A 0
3 *14:9 0.000626475
4 *14:9 *15:9 0
5 *13:9 *14:9 0
*RES
1 a[5] *14:9 28.0914 
2 *14:9 *706:A 23 
*END

*D_NET *15 0.0014468
*CONN
*P a[6] I
*I *707:A I *D sky130_fd_sc_hd__clkbuf_1
*CAP
1 a[6] 0.000681149
2 *707:A 0
3 *15:9 0.000681149
4 *15:9 *16:9 0
5 *15:9 *171:12 8.44998e-05
6 *14:9 *15:9 0
*RES
1 a[6] *15:9 29.5207 
2 *15:9 *707:A 23 
*END

*D_NET *16 0.00126083
*CONN
*P a[7] I
*I *708:A I *D sky130_fd_sc_hd__clkbuf_1
*CAP
1 a[7] 0.000630415
2 *708:A 0
3 *16:9 0.000630415
4 *16:9 *17:9 0
5 *16:9 *171:12 0
6 *15:9 *16:9 0
*RES
1 a[7] *16:9 28.0914 
2 *16:9 *708:A 23 
*END

*D_NET *17 0.00125295
*CONN
*P a[8] I
*I *709:A I *D sky130_fd_sc_hd__clkbuf_1
*CAP
1 a[8] 0.000626475
2 *709:A 0
3 *17:9 0.000626475
4 *17:9 *18:9 0
5 *16:9 *17:9 0
*RES
1 a[8] *17:9 28.0914 
2 *17:9 *709:A 23 
*END

*D_NET *18 0.0012774
*CONN
*P a[9] I
*I *710:A I *D sky130_fd_sc_hd__clkbuf_1
*CAP
1 a[9] 0.000628959
2 *710:A 0
3 *18:9 0.000628959
4 *18:9 *174:10 1.94812e-05
5 *4:11 *18:9 0
6 *17:9 *18:9 0
*RES
1 a[9] *18:9 28.0914 
2 *18:9 *710:A 23 
*END

*D_NET *19 0.00103531
*CONN
*P b[0] I
*I *711:A I *D sky130_fd_sc_hd__clkbuf_1
*CAP
1 b[0] 0.000517657
2 *711:A 0.000517657
3 *711:A *719:A 0
*RES
1 b[0] *711:A 48.7507 
*END

*D_NET *20 0.00110032
*CONN
*P b[10] I
*I *712:A I *D sky130_fd_sc_hd__clkbuf_1
*CAP
1 b[10] 0.000490419
2 *712:A 0.000490419
3 *712:A *713:A 0
4 *712:A *728:A 0
5 *712:A *159:10 6.38433e-05
6 *712:A *165:36 5.56356e-05
*RES
1 b[10] *712:A 48.5643 
*END

*D_NET *21 0.00100551
*CONN
*P b[11] I
*I *713:A I *D sky130_fd_sc_hd__clkbuf_1
*CAP
1 b[11] 0.000502753
2 *713:A 0.000502753
3 *713:A *715:A 0
4 *712:A *713:A 0
*RES
1 b[11] *713:A 48.2743 
*END

*D_NET *22 0.000901682
*CONN
*P b[12] I
*I *715:A I *D sky130_fd_sc_hd__clkbuf_1
*CAP
1 b[12] 0.000450841
2 *715:A 0.000450841
3 *715:A *716:A 0
4 *713:A *715:A 0
*RES
1 b[12] *715:A 47.3214 
*END

*D_NET *23 0.00100823
*CONN
*P b[13] I
*I *716:A I *D sky130_fd_sc_hd__clkbuf_1
*CAP
1 b[13] 0.000494944
2 *716:A 0.000494944
3 *716:A *717:A 0
4 *716:A *180:10 1.83408e-05
5 *715:A *716:A 0
*RES
1 b[13] *716:A 48.2743 
*END

*D_NET *24 0.00104444
*CONN
*P b[14] I
*I *717:A I *D sky130_fd_sc_hd__clkbuf_1
*CAP
1 b[14] 0.000520364
2 *717:A 0.000520364
3 *717:A *718:A 0
4 *717:A *181:8 3.7122e-06
5 *716:A *717:A 0
*RES
1 b[14] *717:A 48.5643 
*END

*D_NET *25 0.0010262
*CONN
*P b[15] I
*I *718:A I *D sky130_fd_sc_hd__clkbuf_1
*CAP
1 b[15] 0.000513101
2 *718:A 0.000513101
3 *717:A *718:A 0
*RES
1 b[15] *718:A 48.2743 
*END

*D_NET *26 0.00097863
*CONN
*P b[1] I
*I *719:A I *D sky130_fd_sc_hd__clkbuf_1
*CAP
1 b[1] 0.000342138
2 *719:A 0.000342138
3 *719:A *27:11 0
4 *719:A *37:8 0.000294353
5 *711:A *719:A 0
*RES
1 b[1] *719:A 46.7 
*END

*D_NET *27 0.00137866
*CONN
*P b[2] I
*I *720:A I *D sky130_fd_sc_hd__clkbuf_1
*CAP
1 b[2] 0.000602462
2 *720:A 0
3 *27:11 0.000602462
4 *27:11 *668:D 0.000173741
5 *27:11 *721:A 0
6 *27:11 *37:8 0
7 *719:A *27:11 0
*RES
1 b[2] *27:11 27.8014 
2 *27:11 *720:A 23 
*END

*D_NET *28 0.00110782
*CONN
*P b[3] I
*I *721:A I *D sky130_fd_sc_hd__clkbuf_1
*CAP
1 b[3] 0.000553911
2 *721:A 0.000553911
3 *721:A *722:A 0
4 *27:11 *721:A 0
*RES
1 b[3] *721:A 49.2271 
*END

*D_NET *29 0.00103024
*CONN
*P b[4] I
*I *722:A I *D sky130_fd_sc_hd__clkbuf_1
*CAP
1 b[4] 0.0005089
2 *722:A 0.0005089
3 *722:A *670:D 1.24376e-05
4 *722:A *30:11 0
5 *721:A *722:A 0
*RES
1 b[4] *722:A 47.7979 
*END

*D_NET *30 0.00141661
*CONN
*P b[5] I
*I *723:A I *D sky130_fd_sc_hd__clkbuf_1
*CAP
1 b[5] 0.000549418
2 *723:A 0
3 *30:11 0.000549418
4 *30:11 *670:D 0.000259429
5 *30:11 *724:A 0
6 *30:11 *187:10 5.83407e-05
7 *722:A *30:11 0
*RES
1 b[5] *30:11 27.8014 
2 *30:11 *723:A 23 
*END

*D_NET *31 0.00121797
*CONN
*P b[6] I
*I *724:A I *D sky130_fd_sc_hd__clkbuf_1
*CAP
1 b[6] 0.000580347
2 *724:A 0.000580347
3 *724:A *726:A 0
4 *724:A *155:10 1.94812e-05
5 *724:A *188:10 3.77959e-05
6 *30:11 *724:A 0
*RES
1 b[6] *724:A 49.7036 
*END

*D_NET *32 0.000954822
*CONN
*P b[7] I
*I *726:A I *D sky130_fd_sc_hd__clkbuf_1
*CAP
1 b[7] 0.000475555
2 *726:A 0.000475555
3 *726:A *33:17 0
4 *726:A *190:10 3.7122e-06
5 *724:A *726:A 0
*RES
1 b[7] *726:A 47.7979 
*END

*D_NET *33 0.00124242
*CONN
*P b[8] I
*I *727:A I *D sky130_fd_sc_hd__clkbuf_1
*CAP
1 b[8] 0.000614992
2 *727:A 0
3 *33:17 0.000614992
4 *33:17 *674:D 1.24376e-05
5 *33:17 *728:A 0
6 *726:A *33:17 0
*RES
1 b[8] *33:17 28.6921 
2 *33:17 *727:A 23 
*END

*D_NET *34 0.00131705
*CONN
*P b[9] I
*I *728:A I *D sky130_fd_sc_hd__clkbuf_1
*CAP
1 b[9] 0.00049538
2 *728:A 0.00049538
3 *728:A *159:8 0.000102389
4 *728:A *159:10 0
5 *728:A *165:36 0.000223901
6 *712:A *728:A 0
7 *33:17 *728:A 0
*RES
1 b[9] *728:A 49.3721 
*END

*D_NET *35 0.00122823
*CONN
*P cin I
*I *729:A I *D sky130_fd_sc_hd__clkbuf_1
*CAP
1 cin 0.000386654
2 *729:A 0
3 *35:11 0.000386654
4 *35:11 *133:12 0.0001018
5 *35:11 *150:12 1.01436e-05
6 *35:11 *151:14 0.000342979
*RES
1 cin *35:11 28.2188 
2 *35:11 *729:A 23 
*END

*D_NET *36 0.00840066
*CONN
*P clk I
*I *695:A I *D sky130_fd_sc_hd__clkbuf_16
*CAP
1 clk 0.00413215
2 *695:A 0
3 *36:19 0.00413215
4 *36:19 *126:10 0
5 *36:19 *159:10 5.02335e-05
6 *36:19 *162:18 8.61142e-05
*RES
1 clk *36:19 49.2007 
2 *36:19 *695:A 23 
*END

*D_NET *37 0.00155797
*CONN
*P sum[0] O
*I *736:X O *D sky130_fd_sc_hd__buf_1
*CAP
1 sum[0] 0.000360649
2 *736:X 0.000234268
3 *37:8 0.000594916
4 sum[0] sum[1] 0
5 *37:8 *45:12 0
6 *37:8 *163:71 4.83778e-05
7 *37:8 *183:8 2.54046e-05
8 *719:A *37:8 0.000294353
9 *27:11 *37:8 0
*RES
1 *736:X *37:8 43.9554 
2 *37:8 sum[0] 9.27307 
*END

*D_NET *38 0.00107401
*CONN
*P sum[10] O
*I *737:X O *D sky130_fd_sc_hd__buf_1
*CAP
1 sum[10] 0.000413858
2 *737:X 0.000413858
3 sum[10] sum[11] 0
4 sum[10] sum[9] 1.05236e-05
5 sum[10] *666:CLK 0.000179971
6 sum[10] *53:10 5.58003e-05
*RES
1 *737:X sum[10] 49.8991 
*END

*D_NET *39 0.000792151
*CONN
*P sum[11] O
*I *738:X O *D sky130_fd_sc_hd__buf_1
*CAP
1 sum[11] 0.00032832
2 *738:X 0.00032832
3 sum[11] sum[12] 1.05236e-05
4 sum[11] *164:46 0.000124987
5 sum[10] sum[11] 0
*RES
1 *738:X sum[11] 49.0231 
*END

*D_NET *40 0.000781713
*CONN
*P sum[12] O
*I *739:X O *D sky130_fd_sc_hd__buf_1
*CAP
1 sum[12] 0.000109933
2 *739:X 0.000275662
3 *40:10 0.000385595
4 sum[12] sum[13] 0
5 sum[11] sum[12] 1.05236e-05
*RES
1 *739:X *40:10 42.0289 
2 *40:10 sum[12] 8.4816 
*END

*D_NET *41 0.000759135
*CONN
*P sum[13] O
*I *740:X O *D sky130_fd_sc_hd__buf_1
*CAP
1 sum[13] 0.000315958
2 *740:X 0.000315958
3 sum[13] sum[14] 0
4 sum[13] *42:16 0
5 sum[13] *164:59 0.000127219
6 sum[12] sum[13] 0
*RES
1 *740:X sum[13] 49.0231 
*END

*D_NET *42 0.000725002
*CONN
*P sum[14] O
*I *741:X O *D sky130_fd_sc_hd__buf_1
*CAP
1 sum[14] 4.64007e-05
2 *741:X 0.000312028
3 *42:16 0.000358428
4 sum[14] sum[15] 0
5 *42:16 sum[15] 8.14539e-06
6 sum[13] sum[14] 0
7 sum[13] *42:16 0
*RES
1 *741:X *42:16 49.9587 
2 *42:16 sum[14] 0.199733 
*END

*D_NET *43 0.00119619
*CONN
*P sum[15] O
*I *742:X O *D sky130_fd_sc_hd__buf_1
*CAP
1 sum[15] 0.00041697
2 *742:X 0.00041697
3 sum[15] sum[16] 0
4 sum[15] *741:A 1.84831e-05
5 sum[15] *164:65 0.000141675
6 sum[15] *167:14 0.000182858
7 sum[14] sum[15] 0
8 *10:13 sum[15] 1.10864e-05
9 *42:16 sum[15] 8.14539e-06
*RES
1 *742:X sum[15] 49.985 
*END

*D_NET *44 0.00224242
*CONN
*P sum[16] O
*I *743:X O *D sky130_fd_sc_hd__buf_1
*CAP
1 sum[16] 0.000693166
2 *743:X 0.000318833
3 *44:10 0.001012
4 *44:10 *136:10 1.59071e-05
5 sum[15] sum[16] 0
6 *11:9 *44:10 0.000202513
7 *12:11 *44:10 0
*RES
1 *743:X *44:10 44.3696 
2 *44:10 sum[16] 10.2176 
*END

*D_NET *45 0.00100087
*CONN
*P sum[1] O
*I *744:X O *D sky130_fd_sc_hd__buf_1
*CAP
1 sum[1] 0.000220554
2 *744:X 0.000229331
3 *45:12 0.000449886
4 sum[1] sum[2] 0
5 *45:12 sum[2] 8.91468e-07
6 *45:12 *175:14 8.62783e-05
7 *45:12 *204:10 1.39317e-05
8 sum[0] sum[1] 0
9 *37:8 *45:12 0
*RES
1 *744:X *45:12 49.3039 
2 *45:12 sum[1] 0.757867 
*END

*D_NET *46 0.000646141
*CONN
*P sum[2] O
*I *745:X O *D sky130_fd_sc_hd__buf_1
*CAP
1 sum[2] 0.000307692
2 *745:X 0.000307692
3 sum[2] sum[3] 0
4 sum[2] *175:14 2.98663e-05
5 sum[1] sum[2] 0
6 *45:12 sum[2] 8.91468e-07
*RES
1 *745:X sum[2] 48.3188 
*END

*D_NET *47 0.000982771
*CONN
*P sum[3] O
*I *746:X O *D sky130_fd_sc_hd__buf_1
*CAP
1 sum[3] 0.00010757
2 *746:X 0.000365448
3 *47:10 0.000473018
4 sum[3] sum[4] 1.05236e-05
5 *47:10 sum[4] 5.1614e-06
6 *47:10 *175:14 0
7 *47:10 *206:16 2.10502e-05
8 sum[2] sum[3] 0
*RES
1 *746:X *47:10 43.4582 
2 *47:10 sum[3] 8.4816 
*END

*D_NET *48 0.000657023
*CONN
*P sum[4] O
*I *747:X O *D sky130_fd_sc_hd__buf_1
*CAP
1 sum[4] 0.000305736
2 *747:X 0.000305736
3 sum[4] sum[5] 0
4 sum[4] *175:14 2.98663e-05
5 sum[3] sum[4] 1.05236e-05
6 *47:10 sum[4] 5.1614e-06
*RES
1 *747:X sum[4] 48.3188 
*END

*D_NET *49 0.000992908
*CONN
*P sum[5] O
*I *748:X O *D sky130_fd_sc_hd__buf_1
*CAP
1 sum[5] 0.000114636
2 *748:X 0.000374388
3 *49:10 0.000489024
4 sum[5] sum[6] 8.14539e-06
5 *49:10 sum[6] 6.71408e-06
6 *49:10 *175:14 0
7 sum[4] sum[5] 0
*RES
1 *748:X *49:10 43.4582 
2 *49:10 sum[5] 8.4816 
*END

*D_NET *50 0.000682124
*CONN
*P sum[6] O
*I *749:X O *D sky130_fd_sc_hd__buf_1
*CAP
1 sum[6] 0.000319141
2 *749:X 0.000319141
3 sum[6] sum[7] 0
4 sum[6] *175:14 2.89829e-05
5 sum[5] sum[6] 8.14539e-06
6 *49:10 sum[6] 6.71408e-06
*RES
1 *749:X sum[6] 48.3188 
*END

*D_NET *51 0.000736997
*CONN
*P sum[7] O
*I *750:X O *D sky130_fd_sc_hd__buf_1
*CAP
1 sum[7] 0.00010757
2 *750:X 0.000255666
3 *51:10 0.000363237
4 sum[7] sum[8] 1.05236e-05
5 *51:10 *175:14 0
6 sum[6] sum[7] 0
*RES
1 *750:X *51:10 42.0289 
2 *51:10 sum[7] 8.4816 
*END

*D_NET *52 0.000535268
*CONN
*P sum[8] O
*I *751:X O *D sky130_fd_sc_hd__buf_1
*CAP
1 sum[8] 0.000237468
2 *751:X 0.000237468
3 sum[8] sum[9] 0
4 sum[8] *175:14 4.9808e-05
5 sum[7] sum[8] 1.05236e-05
*RES
1 *751:X sum[8] 47.4311 
*END

*D_NET *53 0.00102396
*CONN
*P sum[9] O
*I *752:X O *D sky130_fd_sc_hd__buf_1
*CAP
1 sum[9] 0.00010757
2 *752:X 0.000354935
3 *53:10 0.000462506
4 *53:10 *666:CLK 0
5 *53:10 *195:12 3.26241e-05
6 sum[10] sum[9] 1.05236e-05
7 sum[10] *53:10 5.58003e-05
8 sum[8] sum[9] 0
*RES
1 *752:X *53:10 43.4582 
2 *53:10 sum[9] 8.4816 
*END

*D_NET *54 0.00285753
*CONN
*I *603:B I *D sky130_fd_sc_hd__xor2_1
*I *608:A I *D sky130_fd_sc_hd__or2b_1
*I *605:A2 I *D sky130_fd_sc_hd__o21a_1
*I *602:Y O *D sky130_fd_sc_hd__nand2_1
*CAP
1 *603:B 7.36839e-05
2 *608:A 0.000390943
3 *605:A2 0
4 *602:Y 0.000144282
5 *54:20 0.00045096
6 *54:14 0.000323596
7 *54:10 0.000334177
8 *603:B *603:A 2.95526e-05
9 *603:B *228:18 1.09834e-05
10 *608:A *754:A 2.50118e-05
11 *608:A *55:18 3.8579e-05
12 *608:A *126:14 1.34995e-05
13 *608:A *126:31 0.000106277
14 *608:A *213:8 0.000100477
15 *54:10 *602:A 5.5792e-05
16 *54:10 *55:10 6.03323e-05
17 *54:10 *55:18 3.13857e-05
18 *54:10 *127:12 0.000184634
19 *54:14 *603:A 6.70361e-05
20 *54:14 *606:A 2.64616e-05
21 *54:14 *606:B 5.3304e-05
22 *54:14 *162:56 1.697e-05
23 *54:14 *241:10 0.000178391
24 *54:20 *141:10 0.000113235
25 *54:20 *160:10 2.14486e-05
26 *54:20 *160:23 6.5117e-06
*RES
1 *602:Y *54:10 41.2314 
2 *54:10 *54:14 18.48 
3 *54:14 *54:20 31.5536 
4 *54:20 *605:A2 23 
5 *54:20 *608:A 28.8621 
6 *54:14 *603:B 24.595 
*END

*D_NET *55 0.00360797
*CONN
*I *606:A I *D sky130_fd_sc_hd__xnor2_1
*I *608:B_N I *D sky130_fd_sc_hd__or2b_1
*I *604:X O *D sky130_fd_sc_hd__xor2_1
*CAP
1 *606:A 6.79632e-05
2 *608:B_N 0
3 *604:X 0.000336042
4 *55:18 0.000619369
5 *55:10 0.00102337
6 *606:A *162:56 0.000138859
7 *606:A *241:10 1.358e-05
8 *606:A *242:8 3.7122e-06
9 *55:10 *600:A 0.000115293
10 *55:10 *602:A 1.09834e-05
11 *55:10 *128:10 9.43014e-05
12 *55:10 *166:82 2.0551e-05
13 *55:10 *228:18 8.57577e-05
14 *55:18 *691:D 5.58003e-05
15 *55:18 *754:A 9.36891e-05
16 *55:18 *126:14 5.56356e-05
17 *55:18 *126:31 7.73104e-05
18 *55:18 *127:12 0.000190201
19 *55:18 *166:82 7.6774e-06
20 *55:18 *213:8 2.97099e-05
21 *55:18 *227:18 0.00024502
22 *55:18 *241:10 0.000166387
23 *608:A *55:18 3.8579e-05
24 *54:10 *55:10 6.03323e-05
25 *54:10 *55:18 3.13857e-05
26 *54:14 *606:A 2.64616e-05
*RES
1 *604:X *55:10 44.1936 
2 *55:10 *55:18 28.8371 
3 *55:18 *608:B_N 23 
4 *55:10 *606:A 39.5743 
*END

*D_NET *56 0.000538072
*CONN
*I *606:B I *D sky130_fd_sc_hd__xnor2_1
*I *605:X O *D sky130_fd_sc_hd__o21a_1
*CAP
1 *606:B 2.77218e-05
2 *605:X 6.66645e-05
3 *56:8 9.43863e-05
4 *606:B *162:56 2.64616e-05
5 *56:8 *142:10 0.000134767
6 *56:8 *214:10 0.000134767
7 *54:14 *606:B 5.3304e-05
*RES
1 *605:X *56:8 39.9057 
2 *56:8 *606:B 38.6214 
*END

*D_NET *57 0.00174481
*CONN
*I *618:A I *D sky130_fd_sc_hd__nand2_1
*I *612:A I *D sky130_fd_sc_hd__xnor2_1
*I *607:X O *D sky130_fd_sc_hd__xor2_1
*CAP
1 *618:A 0.000328477
2 *612:A 9.15642e-05
3 *607:X 7.56108e-05
4 *57:8 0.000495652
5 *612:A *612:B 5.50049e-05
6 *612:A *228:10 6.17437e-06
7 *618:A *620:A 5.3304e-05
8 *618:A *61:8 0.000131744
9 *618:A *66:6 0.000110904
10 *618:A *66:14 4.839e-05
11 *618:A *68:8 1.37246e-05
12 *618:A *189:12 0
13 *618:A *228:10 0.000111763
14 *57:8 *616:A2 0.000141572
15 *57:8 *61:8 3.47781e-05
16 *57:8 *65:8 4.61458e-05
17 *57:8 *189:12 0
*RES
1 *607:X *57:8 40.2579 
2 *57:8 *612:A 39.5743 
3 *57:8 *618:A 44.7114 
*END

*D_NET *58 0.00103863
*CONN
*I *623:A2 I *D sky130_fd_sc_hd__o31ai_4
*I *611:A1 I *D sky130_fd_sc_hd__o21a_1
*I *608:X O *D sky130_fd_sc_hd__or2b_1
*CAP
1 *623:A2 0
2 *611:A1 2.30556e-05
3 *608:X 2.8566e-05
4 *58:21 0.000228722
5 *58:6 0.000280344
6 *58:6 *611:A2 5.79559e-05
7 *58:21 *611:A2 5.79559e-05
8 *58:21 *620:A 2.19403e-05
9 *58:21 *66:14 0.000248681
10 *58:21 *228:10 9.1405e-05
*RES
1 *608:X *58:6 23.6214 
2 *58:6 *611:A1 23.4971 
3 *58:6 *58:21 35.1371 
4 *58:21 *623:A2 23 
*END

*D_NET *59 0.000509168
*CONN
*I *610:B1 I *D sky130_fd_sc_hd__o21ai_1
*I *609:X O *D sky130_fd_sc_hd__a22o_1
*CAP
1 *610:B1 0
2 *609:X 0.000193812
3 *59:10 0.000193812
4 *59:10 *600:B 1.24376e-05
5 *59:10 *610:A1 6.12479e-05
6 *59:10 *159:14 4.78593e-05
*RES
1 *609:X *59:10 41.3557 
2 *59:10 *610:B1 38 
*END

*D_NET *60 0.00198365
*CONN
*I *620:A I *D sky130_fd_sc_hd__nor2_1
*I *611:B1 I *D sky130_fd_sc_hd__o21a_1
*I *610:Y O *D sky130_fd_sc_hd__o21ai_1
*CAP
1 *620:A 8.36961e-05
2 *611:B1 0
3 *610:Y 0.000650702
4 *60:12 8.36961e-05
5 *60:10 0.000650702
6 *620:A *66:14 0.000145163