*SPEF "ieee 1481-1999"
*DESIGN "adder"
*DATE "10:37:18 Thursday April 17, 2025"
*VENDOR "The OpenROAD Project"
*PROGRAM "OpenROAD"
*VERSION "b16bda7e82721d10566ff7e2b68f1ff0be9f9e38"
*DESIGN_FLOW "NAME_SCOPE LOCAL" "PIN_CAP NONE"
*DIVIDER /
*DELIMITER :
*BUS_DELIMITER []
*T_UNIT 1 NS
*C_UNIT 1 PF
*R_UNIT 1 OHM
*L_UNIT 1 HENRY

*NAME_MAP
*3 a1
*4 a10
*5 a11
*6 a12
*7 a13
*8 a14
*9 a15
*10 a16
*11 a2
*12 a3
*13 a4
*14 a5
*15 a6
*16 a7
*17 a8
*18 a9
*19 b1
*20 b10
*21 b11
*22 b12
*23 b13
*24 b14
*25 b15
*26 b16
*27 b2
*28 b3
*29 b4
*30 b5
*31 b6
*32 b7
*33 b8
*34 b9
*35 cin
*36 clk
*37 cout
*38 s1
*39 s10
*40 s11
*41 s12
*42 s13
*43 s14
*44 s15
*45 s16
*46 s2
*47 s3
*48 s4
*49 s5
*50 s6
*51 s7
*52 s8
*53 s9
*54 _000_
*55 _001_
*56 _002_
*57 _003_
*58 _004_
*59 _005_
*60 _006_
*61 _007_
*62 _008_
*63 _009_
*64 _010_
*65 _011_
*66 _012_
*67 _013_
*68 _014_
*69 _015_
*70 _016_
*71 _017_
*72 _018_
*73 _019_
*74 _020_
*75 _021_
*76 _022_
*77 _023_
*78 _024_
*79 _025_
*80 _026_
*81 _027_
*82 _028_
*83 _029_
*84 _030_
*85 _031_
*86 _032_
*87 _033_
*88 _034_
*89 _035_
*90 _036_
*91 _037_
*92 _038_
*93 _039_
*94 _040_
*95 _041_
*96 _042_
*97 _043_
*98 _044_
*99 _045_
*100 _046_
*101 _047_
*102 _048_
*103 _049_
*104 _050_
*105 _051_
*106 _052_
*107 _053_
*108 _054_
*109 _055_
*110 _056_
*111 _057_
*112 _058_
*113 _059_
*114 _060_
*115 _061_
*116 _062_
*117 clknet_0_clk
*118 clknet_2_0__leaf_clk
*119 clknet_2_1__leaf_clk
*120 clknet_2_2__leaf_clk
*121 clknet_2_3__leaf_clk
*122 net1
*123 net10
*124 net11
*125 net12
*126 net13
*127 net14
*128 net15
*129 net16
*130 net17
*131 net18
*132 net19
*133 net2
*134 net20
*135 net21
*136 net22
*137 net23
*138 net24
*139 net25
*140 net26
*141 net27
*142 net28
*143 net29
*144 net3
*145 net30
*146 net31
*147 net32
*148 net33
*149 net34
*150 net35
*151 net36
*152 net37
*153 net38
*154 net39
*155 net4
*156 net40
*157 net41
*158 net42
*159 net43
*160 net44
*161 net45
*162 net46
*163 net47
*164 net48
*165 net49
*166 net5
*167 net50
*168 net51
*169 net6
*170 net7
*171 net8
*172 net9
*173 x10\.A
*174 x10\.B
*175 x12\.A
*176 x12\.B
*177 x14\.A
*178 x14\.B
*179 x16\.A
*180 x16\.B
*181 x18\.A
*182 x18\.B
*183 x2\.A
*184 x2\.B
*185 x20\.A
*186 x20\.B
*187 x22\.A
*188 x22\.B
*189 x24\.A
*190 x24\.B
*191 x26\.A
*192 x26\.B
*193 x28\.A
*194 x28\.B
*195 x30\.A
*196 x30\.B
*197 x32\.A
*198 x32\.B
*199 x4\.A
*200 x4\.B
*201 x47\.c
*202 x6\.A
*203 x6\.B
*204 x62\.C
*205 x63\.S
*206 x64\.S
*207 x65\.S
*208 x66\.S
*209 x67\.S
*210 x68\.S
*211 x69\.S
*212 x70\.S
*213 x71\.S
*214 x72\.S
*215 x73\.S
*216 x74\.S
*217 x75\.S
*218 x76\.S
*219 x77\.S
*220 x78\.S
*221 x8\.A
*222 x8\.B
*223 FILLER_0_0_107
*224 FILLER_0_0_111
*225 FILLER_0_0_116
*226 FILLER_0_0_29
*227 FILLER_0_0_49
*228 FILLER_0_0_57
*229 FILLER_0_0_62
*230 FILLER_0_0_71
*231 FILLER_0_0_80
*232 FILLER_0_0_85
*233 FILLER_0_0_89
*234 FILLER_0_0_98
*235 FILLER_0_10_106
*236 FILLER_0_10_123
*237 FILLER_0_10_3
*238 FILLER_0_10_45
*239 FILLER_0_10_57
*240 FILLER_0_10_83
*241 FILLER_0_11_110
*242 FILLER_0_11_119
*243 FILLER_0_11_123
*244 FILLER_0_11_15
*245 FILLER_0_11_57
*246 FILLER_0_11_63
*247 FILLER_0_11_84
*248 FILLER_0_11_9
*249 FILLER_0_11_97
*250 FILLER_0_12_110
*251 FILLER_0_12_122
*252 FILLER_0_12_33
*253 FILLER_0_12_38
*254 FILLER_0_12_55
*255 FILLER_0_12_63
*256 FILLER_0_12_82
*257 FILLER_0_12_85
*258 FILLER_0_13_109
*259 FILLER_0_13_119
*260 FILLER_0_13_123
*261 FILLER_0_13_16
*262 FILLER_0_13_3
*263 FILLER_0_13_35
*264 FILLER_0_13_39
*265 FILLER_0_13_57
*266 FILLER_0_13_69
*267 FILLER_0_13_75
*268 FILLER_0_13_82
*269 FILLER_0_13_9
*270 FILLER_0_13_98
*271 FILLER_0_14_105
*272 FILLER_0_14_111
*273 FILLER_0_14_123
*274 FILLER_0_14_13
*275 FILLER_0_14_22
*276 FILLER_0_14_29
*277 FILLER_0_14_37
*278 FILLER_0_14_55
*279 FILLER_0_14_67
*280 FILLER_0_14_79
*281 FILLER_0_14_83
*282 FILLER_0_14_85
*283 FILLER_0_14_9
*284 FILLER_0_14_97
*285 FILLER_0_15_113
*286 FILLER_0_15_20
*287 FILLER_0_15_28
*288 FILLER_0_15_52
*289 FILLER_0_15_73
*290 FILLER_0_15_85
*291 FILLER_0_15_95
*292 FILLER_0_16_122
*293 FILLER_0_16_27
*294 FILLER_0_16_29
*295 FILLER_0_16_3
*296 FILLER_0_16_41
*297 FILLER_0_16_53
*298 FILLER_0_16_65
*299 FILLER_0_16_83
*300 FILLER_0_16_85
*301 FILLER_0_17_111
*302 FILLER_0_17_123
*303 FILLER_0_17_40
*304 FILLER_0_17_52
*305 FILLER_0_17_57
*306 FILLER_0_17_6
*307 FILLER_0_17_93
*308 FILLER_0_18_101
*309 FILLER_0_18_123
*310 FILLER_0_18_26
*311 FILLER_0_18_29
*312 FILLER_0_18_46
*313 FILLER_0_18_58
*314 FILLER_0_18_70
*315 FILLER_0_18_9
*316 FILLER_0_19_113
*317 FILLER_0_19_36
*318 FILLER_0_19_73
*319 FILLER_0_19_93
*320 FILLER_0_1_102
*321 FILLER_0_1_110
*322 FILLER_0_1_113
*323 FILLER_0_1_121
*324 FILLER_0_1_20
*325 FILLER_0_1_3
*326 FILLER_0_1_38
*327 FILLER_0_1_57
*328 FILLER_0_1_61
*329 FILLER_0_1_78
*330 FILLER_0_1_90
*331 FILLER_0_20_119
*332 FILLER_0_20_20
*333 FILLER_0_20_26
*334 FILLER_0_20_29
*335 FILLER_0_20_3
*336 FILLER_0_20_35
*337 FILLER_0_20_44
*338 FILLER_0_20_53
*339 FILLER_0_20_57
*340 FILLER_0_20_62
*341 FILLER_0_20_71
*342 FILLER_0_20_80
*343 FILLER_0_20_85
*344 FILLER_0_20_89
*345 FILLER_0_2_101
*346 FILLER_0_2_120
*347 FILLER_0_2_27
*348 FILLER_0_2_32
*349 FILLER_0_2_44
*350 FILLER_0_2_64
*351 FILLER_0_2_9
*352 FILLER_0_3_110
*353 FILLER_0_3_113
*354 FILLER_0_3_121
*355 FILLER_0_3_22
*356 FILLER_0_3_34
*357 FILLER_0_3_46
*358 FILLER_0_3_54
*359 FILLER_0_3_57
*360 FILLER_0_3_74
*361 FILLER_0_3_86
*362 FILLER_0_3_98
*363 FILLER_0_4_112
*364 FILLER_0_4_21
*365 FILLER_0_4_27
*366 FILLER_0_4_3
*367 FILLER_0_4_53
*368 FILLER_0_4_65
*369 FILLER_0_4_77
*370 FILLER_0_4_83
*371 FILLER_0_4_85
*372 FILLER_0_4_93
*373 FILLER_0_5_100
*374 FILLER_0_5_113
*375 FILLER_0_5_121
*376 FILLER_0_5_29
*377 FILLER_0_5_76
*378 FILLER_0_5_88
*379 FILLER_0_5_9
*380 FILLER_0_6_120
*381 FILLER_0_6_29
*382 FILLER_0_6_6
*383 FILLER_0_6_83
*384 FILLER_0_6_85
*385 FILLER_0_7_116
*386 FILLER_0_7_19
*387 FILLER_0_7_31
*388 FILLER_0_7_39
*389 FILLER_0_7_45
*390 FILLER_0_7_50
*391 FILLER_0_7_67
*392 FILLER_0_7_79
*393 FILLER_0_8_123
*394 FILLER_0_8_19
*395 FILLER_0_8_37
*396 FILLER_0_8_49
*397 FILLER_0_8_73
*398 FILLER_0_8_81
*399 FILLER_0_8_85
*400 FILLER_0_8_89
*401 FILLER_0_9_106
*402 FILLER_0_9_113
*403 FILLER_0_9_121
*404 FILLER_0_9_21
*405 FILLER_0_9_33
*406 FILLER_0_9_45
*407 FILLER_0_9_53
*408 FILLER_0_9_57
*409 FILLER_0_9_69
*410 FILLER_0_9_80
*411 FILLER_0_9_9
*412 FILLER_0_9_91
*413 PHY_EDGE_ROW_0_Left_21
*414 PHY_EDGE_ROW_0_Right_0
*415 PHY_EDGE_ROW_10_Left_31
*416 PHY_EDGE_ROW_10_Right_10
*417 PHY_EDGE_ROW_11_Left_32
*418 PHY_EDGE_ROW_11_Right_11
*419 PHY_EDGE_ROW_12_Left_33
*420 PHY_EDGE_ROW_12_Right_12
*421 PHY_EDGE_ROW_13_Left_34
*422 PHY_EDGE_ROW_13_Right_13
*423 PHY_EDGE_ROW_14_Left_35
*424 PHY_EDGE_ROW_14_Right_14
*425 PHY_EDGE_ROW_15_Left_36
*426 PHY_EDGE_ROW_15_Right_15
*427 PHY_EDGE_ROW_16_Left_37
*428 PHY_EDGE_ROW_16_Right_16
*429 PHY_EDGE_ROW_17_Left_38
*430 PHY_EDGE_ROW_17_Right_17
*431 PHY_EDGE_ROW_18_Left_39
*432 PHY_EDGE_ROW_18_Right_18
*433 PHY_EDGE_ROW_19_Left_40
*434 PHY_EDGE_ROW_19_Right_19
*435 PHY_EDGE_ROW_1_Left_22
*436 PHY_EDGE_ROW_1_Right_1
*437 PHY_EDGE_ROW_20_Left_41
*438 PHY_EDGE_ROW_20_Right_20
*439 PHY_EDGE_ROW_2_Left_23
*440 PHY_EDGE_ROW_2_Right_2
*441 PHY_EDGE_ROW_3_Left_24
*442 PHY_EDGE_ROW_3_Right_3
*443 PHY_EDGE_ROW_4_Left_25
*444 PHY_EDGE_ROW_4_Right_4
*445 PHY_EDGE_ROW_5_Left_26
*446 PHY_EDGE_ROW_5_Right_5
*447 PHY_EDGE_ROW_6_Left_27
*448 PHY_EDGE_ROW_6_Right_6
*449 PHY_EDGE_ROW_7_Left_28
*450 PHY_EDGE_ROW_7_Right_7
*451 PHY_EDGE_ROW_8_Left_29
*452 PHY_EDGE_ROW_8_Right_8
*453 PHY_EDGE_ROW_9_Left_30
*454 PHY_EDGE_ROW_9_Right_9
*455 TAP_TAPCELL_ROW_0_42
*456 TAP_TAPCELL_ROW_0_43
*457 TAP_TAPCELL_ROW_0_44
*458 TAP_TAPCELL_ROW_0_45
*459 TAP_TAPCELL_ROW_10_64
*460 TAP_TAPCELL_ROW_10_65
*461 TAP_TAPCELL_ROW_11_66
*462 TAP_TAPCELL_ROW_11_67
*463 TAP_TAPCELL_ROW_12_68
*464 TAP_TAPCELL_ROW_12_69
*465 TAP_TAPCELL_ROW_13_70
*466 TAP_TAPCELL_ROW_13_71
*467 TAP_TAPCELL_ROW_14_72
*468 TAP_TAPCELL_ROW_14_73
*469 TAP_TAPCELL_ROW_15_74
*470 TAP_TAPCELL_ROW_15_75
*471 TAP_TAPCELL_ROW_16_76
*472 TAP_TAPCELL_ROW_16_77
*473 TAP_TAPCELL_ROW_17_78
*474 TAP_TAPCELL_ROW_17_79
*475 TAP_TAPCELL_ROW_18_80
*476 TAP_TAPCELL_ROW_18_81
*477 TAP_TAPCELL_ROW_19_82
*478 TAP_TAPCELL_ROW_19_83
*479 TAP_TAPCELL_ROW_1_46
*480 TAP_TAPCELL_ROW_1_47
*481 TAP_TAPCELL_ROW_20_84
*482 TAP_TAPCELL_ROW_20_85
*483 TAP_TAPCELL_ROW_20_86
*484 TAP_TAPCELL_ROW_20_87
*485 TAP_TAPCELL_ROW_2_48
*486 TAP_TAPCELL_ROW_2_49
*487 TAP_TAPCELL_ROW_3_50
*488 TAP_TAPCELL_ROW_3_51
*489 TAP_TAPCELL_ROW_4_52
*490 TAP_TAPCELL_ROW_4_53
*491 TAP_TAPCELL_ROW_5_54
*492 TAP_TAPCELL_ROW_5_55
*493 TAP_TAPCELL_ROW_6_56
*494 TAP_TAPCELL_ROW_6_57
*495 TAP_TAPCELL_ROW_7_58
*496 TAP_TAPCELL_ROW_7_59
*497 TAP_TAPCELL_ROW_8_60
*498 TAP_TAPCELL_ROW_8_61
*499 TAP_TAPCELL_ROW_9_62
*500 TAP_TAPCELL_ROW_9_63
*501 _063_
*502 _064_
*503 _065_
*504 _066_
*505 _067_
*506 _068_
*507 _069_
*508 _070_
*509 _071_
*510 _072_
*511 _073_
*512 _074_
*513 _075_
*514 _076_
*515 _077_
*516 _078_
*517 _079_
*518 _080_
*519 _081_
*520 _082_
*521 _083_
*522 _084_
*523 _085_
*524 _086_
*525 _087_
*526 _088_
*527 _089_
*528 _090_
*529 _091_
*530 _092_
*531 _093_
*532 _094_
*533 _095_
*534 _096_
*535 _097_
*536 _098_
*537 _099_
*538 _100_
*539 _101_
*540 _102_
*541 _103_
*542 _104_
*543 _105_
*544 _106_
*545 _107_
*546 _108_
*547 _109_
*548 _110_
*549 _111_
*550 _112_
*551 _113_
*552 _114_
*553 _115_
*554 _116_
*555 _117_
*556 _118_
*557 _119_
*558 _120_
*559 _121_
*560 _122_
*561 _123_
*562 _124_
*563 _125_
*564 _126_
*565 _127_
*566 _128_
*567 _129_
*568 _130_
*569 _131_
*570 _132_
*571 _133_
*572 _134_
*573 _135_
*574 _136_
*575 _137_
*576 _138_
*577 _139_
*578 _140_
*579 _141_
*580 _142_
*581 _143_
*582 _144_
*583 _145_
*584 _146_
*585 _147_
*586 _148_
*587 _149_
*588 _150_
*589 _151_
*590 _152_
*591 _153_
*592 _154_
*593 _155_
*594 _156_
*595 _157_
*596 _158_
*597 _159_
*598 _160_
*599 _161_
*600 _162_
*601 _163_
*602 _164_
*603 _165_
*604 _166_
*605 _167_
*606 _168_
*607 _169_
*608 _170_
*609 _171_
*610 _172_
*611 _173_
*612 _174_
*613 _175_
*614 _176_
*615 _177_
*616 _178_
*617 _179_
*618 _180_
*619 _181_
*620 _182_
*621 _183_
*622 _184_
*623 _185_
*624 _186_
*625 _187_
*626 _188_
*627 _189_
*628 _190_
*629 _191_
*630 _192_
*631 clkbuf_0_clk
*632 clkbuf_2_0__f_clk
*633 clkbuf_2_1__f_clk
*634 clkbuf_2_2__f_clk
*635 clkbuf_2_3__f_clk
*636 clkload0
*637 clkload1
*638 clkload2
*639 input1
*640 input10
*641 input11
*642 input12
*643 input13
*644 input14
*645 input15
*646 input16
*647 input17
*648 input18
*649 input19
*650 input2
*651 input20
*652 input21
*653 input22
*654 input23
*655 input24
*656 input25
*657 input26
*658 input27
*659 input28
*660 input29
*661 input3
*662 input30
*663 input31
*664 input32
*665 input33
*666 input4
*667 input5
*668 input6
*669 input7
*670 input8
*671 input9
*672 output34
*673 output35
*674 output36
*675 output37
*676 output38
*677 output39
*678 output40
*679 output41
*680 output42
*681 output43
*682 output44
*683 output45
*684 output46
*685 output47
*686 output48
*687 output49
*688 output50
*689 rebuffer1

*PORTS
a1 I
a10 I
a11 I
a12 I
a13 I
a14 I
a15 I
a16 I
a2 I
a3 I
a4 I
a5 I
a6 I
a7 I
a8 I
a9 I
b1 I
b10 I
b11 I
b12 I
b13 I
b14 I
b15 I
b16 I
b2 I
b3 I
b4 I
b5 I
b6 I
b7 I
b8 I
b9 I
cin I
clk I
cout O
s1 O
s10 O
s11 O
s12 O
s13 O
s14 O
s15 O
s16 O
s2 O
s3 O
s4 O
s5 O
s6 O
s7 O
s8 O
s9 O

*D_NET *3 0.00217188
*CONN
*P a1 I
*I *639:A I *D sky130_fd_sc_hd__clkbuf_1
*CAP
1 a1 0.000782418
2 *639:A 0.000782418
3 *639:A s15 0.000452954
4 *639:A *599:D 1.84865e-05
5 *639:A *671:A 5.33005e-05
6 *639:A *679:A 8.23036e-05
*RES
1 a1 *639:A 30.4607 
*END

*D_NET *4 0.00109956
*CONN
*P a10 I
*I *650:A I *D sky130_fd_sc_hd__clkbuf_1
*CAP
1 a10 0.000531319
2 *650:A 0.000531319
3 *650:A *607:D 3.08664e-05
4 *650:A *608:D 6.05161e-06
5 *650:A *646:A 0
6 *650:A *661:A 0
*RES
1 a10 *650:A 24.175 
*END

*D_NET *5 0.00111355
*CONN
*P a11 I
*I *661:A I *D sky130_fd_sc_hd__clkbuf_1
*CAP
1 a11 0.000541893
2 *661:A 0.000541893
3 *661:A *608:D 2.976e-05
4 *661:A *666:A 0
5 *650:A *661:A 0
*RES
1 a11 *661:A 24.175 
*END

*D_NET *6 0.00105321
*CONN
*P a12 I
*I *666:A I *D sky130_fd_sc_hd__clkbuf_1
*CAP
1 a12 0.00046838
2 *666:A 0.00046838
3 *666:A *613:CLK 8.79282e-05
4 *666:A *667:A 0
5 *666:A *155:14 2.85234e-05
6 *661:A *666:A 0
*RES
1 a12 *666:A 23.3536 
*END

*D_NET *7 0.00186551
*CONN
*P a13 I
*I *667:A I *D sky130_fd_sc_hd__clkbuf_1
*CAP
1 a13 0.00061551
2 *667:A 0.00061551
3 *667:A *613:D 0.000534377
4 *667:A *668:A 0.000100115
5 *666:A *667:A 0
*RES
1 a13 *667:A 27.8714 
*END

*D_NET *8 0.00133818
*CONN
*P a14 I
*I *668:A I *D sky130_fd_sc_hd__clkbuf_1
*CAP
1 a14 0.000583501
2 *668:A 0.000583501
3 *668:A *613:D 7.10587e-05
4 *668:A *669:A 0
5 *667:A *668:A 0.000100115
*RES
1 a14 *668:A 25.7821 
*END

*D_NET *9 0.00104784
*CONN
*P a15 I
*I *669:A I *D sky130_fd_sc_hd__clkbuf_1
*CAP
1 a15 0.000523922
2 *669:A 0.000523922
3 *669:A *670:A 0
4 *668:A *669:A 0
*RES
1 a15 *669:A 23.7643 
*END

*D_NET *10 0.00147408
*CONN
*P a16 I
*I *670:A I *D sky130_fd_sc_hd__clkbuf_1
*CAP
1 a16 0.000737038
2 *670:A 0.000737038
3 *670:A *613:D 0
4 *669:A *670:A 0
*RES
1 a16 *670:A 27.9429 
*END

*D_NET *11 0.00113013
*CONN
*P a2 I
*I *671:A I *D sky130_fd_sc_hd__clkbuf_1
*CAP
1 a2 0.000472191
2 *671:A 0.000472191
3 *671:A s15 0
4 *671:A s16 0.000132451
5 *671:A *640:A 0
6 *639:A *671:A 5.33005e-05
*RES
1 a2 *671:A 23.3536 
*END

*D_NET *12 0.00123052
*CONN
*P a3 I
*I *640:A I *D sky130_fd_sc_hd__clkbuf_1
*CAP
1 a3 0.000565268
2 *640:A 0.000565268
3 *640:A cout 0
4 *640:A s16 0
5 *640:A *641:A 0
6 *640:A *679:A 9.99853e-05
7 *671:A *640:A 0
*RES
1 a3 *640:A 24.3 
*END

*D_NET *13 0.00117661
*CONN
*P a4 I
*I *641:A I *D sky130_fd_sc_hd__clkbuf_1
*CAP
1 a4 0.000516617
2 *641:A 0.000516617
3 *641:A cout 0
4 *641:A *642:A 0
5 *641:A *149:14 0.000143375
6 *640:A *641:A 0
*RES
1 a4 *641:A 24.175 
*END

*D_NET *14 0.00101642
*CONN
*P a5 I
*I *642:A I *D sky130_fd_sc_hd__clkbuf_1
*CAP
1 a5 0.00047986
2 *642:A 0.00047986
3 *642:A *643:A 0
4 *642:A *149:14 5.66971e-05
5 *641:A *642:A 0
*RES
1 a5 *642:A 23.3536 
*END

*D_NET *15 0.0011537
*CONN
*P a6 I
*I *643:A I *D sky130_fd_sc_hd__clkbuf_1
*CAP
1 a6 0.000505032
2 *643:A 0.000505032
3 *643:A *644:A 0
4 *643:A *149:14 0.000143633
5 *642:A *643:A 0
*RES
1 a6 *643:A 24.175 
*END

*D_NET *16 0.00113776
*CONN
*P a7 I
*I *644:A I *D sky130_fd_sc_hd__clkbuf_1
*CAP
1 a7 0.000518822
2 *644:A 0.000518822
3 *644:A *645:A 0
4 *644:A *149:14 0.000100115
5 *643:A *644:A 0
*RES
1 a7 *644:A 24.425 
*END

*D_NET *17 0.00101221
*CONN
*P a8 I
*I *645:A I *D sky130_fd_sc_hd__clkbuf_1
*CAP
1 a8 0.000477758
2 *645:A 0.000477758
3 *645:A *646:A 0
4 *645:A *149:14 5.66971e-05
5 *644:A *645:A 0
*RES
1 a8 *645:A 23.3536 
*END

*D_NET *18 0.0011537
*CONN
*P a9 I
*I *646:A I *D sky130_fd_sc_hd__clkbuf_1
*CAP
1 a9 0.000505032
2 *646:A 0.000505032
3 *646:A *149:14 0.000143633
4 *645:A *646:A 0
5 *650:A *646:A 0
*RES
1 a9 *646:A 24.175 
*END

*D_NET *19 0.00348429
*CONN
*P b1 I
*I *647:A I *D sky130_fd_sc_hd__clkbuf_1
*CAP
1 b1 0.0014092
2 *647:A 0.0014092
3 *647:A s3 0.000175248
4 *647:A s4 3.11088e-05
5 *647:A *615:D 0
6 *647:A *616:D 0.000211608
7 *647:A *656:A 0
8 *647:A *683:A 5.33005e-05
9 *647:A *130:24 0.000194611
*RES
1 b1 *647:A 41.925 
*END

*D_NET *20 0.000946543
*CONN
*P b10 I
*I *648:A I *D sky130_fd_sc_hd__clkbuf_1
*CAP
1 b10 0.000464114
2 *648:A 0.000464114
3 *648:A *623:D 1.83136e-05
4 *648:A *649:A 0
5 *648:A *664:A 0
*RES
1 b10 *648:A 22.6571 
*END

*D_NET *21 0.0010584
*CONN
*P b11 I
*I *649:A I *D sky130_fd_sc_hd__clkbuf_1
*CAP
1 b11 0.000529198
2 *649:A 0.000529198
3 *649:A *651:A 0
4 *648:A *649:A 0
*RES
1 b11 *649:A 23.7286 
*END

*D_NET *22 0.000941071
*CONN
*P b12 I
*I *651:A I *D sky130_fd_sc_hd__clkbuf_1
*CAP
1 b12 0.000470535
2 *651:A 0.000470535
3 *651:A *652:A 0
4 *649:A *651:A 0
*RES
1 b12 *651:A 22.6571 
*END

*D_NET *23 0.000941071
*CONN
*P b13 I
*I *652:A I *D sky130_fd_sc_hd__clkbuf_1
*CAP
1 b13 0.000470535
2 *652:A 0.000470535
3 *652:A *653:A 0
4 *651:A *652:A 0
*RES
1 b13 *652:A 22.6571 
*END

*D_NET *24 0.000950119
*CONN
*P b14 I
*I *653:A I *D sky130_fd_sc_hd__clkbuf_1
*CAP
1 b14 0.000454532
2 *653:A 0.000454532
3 *653:A *627:D 1.83136e-05
4 *653:A *629:D 2.27416e-05
5 *653:A *654:A 0
6 *652:A *653:A 0
*RES
1 b14 *653:A 22.6571 
*END

*D_NET *25 0.000983858
*CONN
*P b15 I
*I *654:A I *D sky130_fd_sc_hd__clkbuf_1
*CAP
1 b15 0.000442407
2 *654:A 0.000442407
3 *654:A *655:A 9.90431e-05
4 *653:A *654:A 0
*RES
1 b15 *654:A 22.2464 
*END

*D_NET *26 0.00137138
*CONN
*P b16 I
*I *655:A I *D sky130_fd_sc_hd__clkbuf_1
*CAP
1 b16 0.00063617
2 *655:A 0.00063617
3 *654:A *655:A 9.90431e-05
*RES
1 b16 *655:A 25.6571 
*END

*D_NET *27 0.000879839
*CONN
*P b2 I
*I *656:A I *D sky130_fd_sc_hd__clkbuf_1
*CAP
1 b2 0.000439919
2 *656:A 0.000439919
3 *656:A *657:A 0
4 *647:A *656:A 0
*RES
1 b2 *656:A 21.8357 
*END

*D_NET *28 0.0013442
*CONN
*P b3 I
*I *657:A I *D sky130_fd_sc_hd__clkbuf_1
*CAP
1 b3 0.000544531
2 *657:A 0.000544531
3 *657:A s1 0
4 *657:A *616:D 1.32552e-05
5 *657:A *658:A 0.000186662
6 *657:A *681:A 5.52238e-05
7 *656:A *657:A 0
*RES
1 b3 *657:A 24.425 
*END

*D_NET *29 0.00171324
*CONN
*P b4 I
*I *658:A I *D sky130_fd_sc_hd__clkbuf_1
*CAP
1 b4 0.000511396
2 *658:A 0.000511396
3 *658:A s1 0.000165272
4 *658:A *616:D 5.30637e-06
5 *658:A *617:D 0.000142154
6 *658:A *659:A 0
7 *658:A *681:A 0.000191052
8 *657:A *658:A 0.000186662
*RES
1 b4 *658:A 27.0143 
*END

*D_NET *30 0.000905791
*CONN
*P b5 I
*I *659:A I *D sky130_fd_sc_hd__clkbuf_1
*CAP
1 b5 0.000423053
2 *659:A 0.000423053
3 *659:A *618:CLK 5.52238e-05
4 *659:A *660:A 0
5 *659:A *206:12 4.46186e-06
6 *658:A *659:A 0
*RES
1 b5 *659:A 21.8357 
*END

*D_NET *31 0.00171671
*CONN
*P b6 I
*I *660:A I *D sky130_fd_sc_hd__clkbuf_1
*CAP
1 b6 0.000747063
2 *660:A 0.000747063
3 *660:A *619:D 1.48543e-05
4 *660:A *620:D 0.000142194
5 *660:A *662:A 5.52302e-05
6 *660:A *174:14 1.03037e-05
7 *659:A *660:A 0
*RES
1 b6 *660:A 27.7107 
*END

*D_NET *32 0.000889953
*CONN
*P b7 I
*I *662:A I *D sky130_fd_sc_hd__clkbuf_1
*CAP
1 b7 0.000407716
2 *662:A 0.000407716
3 *662:A *663:A 0
4 *662:A *174:14 1.92905e-05
5 *660:A *662:A 5.52302e-05
*RES
1 b7 *662:A 21.8357 
*END

*D_NET *33 0.000876521
*CONN
*P b8 I
*I *663:A I *D sky130_fd_sc_hd__clkbuf_1
*CAP
1 b8 0.000409701
2 *663:A 0.000409701
3 *663:A *620:D 5.7119e-05
4 *663:A *664:A 0
5 *662:A *663:A 0
*RES
1 b8 *663:A 21.8357 
*END

*D_NET *34 0.000941071
*CONN
*P b9 I
*I *664:A I *D sky130_fd_sc_hd__clkbuf_1
*CAP
1 b9 0.000470535
2 *664:A 0.000470535
3 *648:A *664:A 0
4 *663:A *664:A 0
*RES
1 b9 *664:A 22.6571 
*END

*D_NET *35 0.00109814
*CONN
*P cin I
*I *665:A I *D sky130_fd_sc_hd__clkbuf_1
*CAP
1 cin 0.000406764
2 *665:A 0.000406764
3 *665:A *578:A1 3.51554e-05
4 *665:A *195:12 0.000161806
5 *665:A *196:21 8.76461e-05
*RES
1 cin *665:A 22.9079 
*END

*D_NET *36 0.00653275
*CONN
*P clk I
*I *631:A I *D sky130_fd_sc_hd__clkbuf_16
*CAP
1 clk 0.00298819
2 *631:A 0.00298819
3 *631:A *569:A 0.00010137
4 *631:A *625:D 0.000129735
5 *631:A *634:A 4.26319e-05
6 *631:A *186:18 0.000282638
*RES
1 clk *631:A 33.8031 
*END

*D_NET *37 0.00178803
*CONN
*P cout O
*I *672:X O *D sky130_fd_sc_hd__buf_1
*CAP
1 cout 0.000886498
2 *672:X 0.000886498
3 cout s16 0
4 cout *679:A 1.50319e-05
5 *640:A cout 0
6 *641:A cout 0
*RES
1 *672:X cout 23.9896 
*END

*D_NET *38 0.004491
*CONN
*P s1 O
*I *673:X O *D sky130_fd_sc_hd__buf_1
*CAP
1 s1 0.00165599
2 *673:X 0.00165599
3 s1 s2 0
4 s1 *616:D 0
5 s1 *681:A 0.000626958
6 s1 *684:A 7.53345e-05
7 s1 *130:24 0.000311461
8 s1 *207:14 0
9 *657:A s1 0
10 *658:A s1 0.000165272
*RES
1 *673:X s1 40.0431 
*END

*D_NET *39 0.000577958
*CONN
*P s10 O
*I *674:X O *D sky130_fd_sc_hd__buf_1
*CAP
1 s10 0.000288979
2 *674:X 0.000288979
3 s10 s11 0
4 s10 s9 0
5 s10 *200:14 0
*RES
1 *674:X s10 19.1936 
*END

*D_NET *40 0.000744687
*CONN
*P s11 O
*I *675:X O *D sky130_fd_sc_hd__buf_1
*CAP
1 s11 0.000372343
2 *675:X 0.000372343
3 s11 s12 0
4 s11 *552:B1 0
5 s10 s11 0
*RES
1 *675:X s11 19.5533 
*END

*D_NET *41 0.000584931
*CONN
*P s12 O
*I *676:X O *D sky130_fd_sc_hd__buf_1
*CAP
1 s12 0.000292466
2 *676:X 0.000292466
3 s12 s13 0
4 s12 *201:12 0
5 s11 s12 0
*RES
1 *676:X s12 19.1936 
*END

*D_NET *42 0.000704092
*CONN
*P s13 O
*I *677:X O *D sky130_fd_sc_hd__buf_1
*CAP
1 s13 0.000348879
2 *677:X 0.000348879
3 s13 s14 6.33508e-06
4 s13 *154:16 0
5 s12 s13 0
*RES
1 *677:X s13 21.0874 
*END

*D_NET *43 0.000684655
*CONN
*P s14 O
*I *678:X O *D sky130_fd_sc_hd__buf_1
*CAP
1 s14 0.000332388
2 *678:X 0.000332388
3 s14 s15 8.6123e-06
4 s14 *119:114 4.93118e-06
5 s13 s14 6.33508e-06
*RES
1 *678:X s14 20.7838 
*END

*D_NET *44 0.00130702
*CONN
*P s15 O
*I *679:X O *D sky130_fd_sc_hd__buf_1
*CAP
1 s15 0.000422729
2 *679:X 0.000422729
3 s15 s16 0
4 s14 s15 8.6123e-06
5 *639:A s15 0.000452954
6 *671:A s15 0
*RES
1 *679:X s15 24.4232 
*END

*D_NET *45 0.00168527
*CONN
*P s16 O
*I *680:X O *D sky130_fd_sc_hd__buf_1
*CAP
1 s16 0.000595622
2 *680:X 0.000595622
3 s16 *599:D 0.00026637
4 s16 *119:114 9.52047e-05
5 cout s16 0
6 s15 s16 0
7 *640:A s16 0
8 *671:A s16 0.000132451
*RES
1 *680:X s16 24.267 
*END

*D_NET *46 0.00298066
*CONN
*P s2 O
*I *681:X O *D sky130_fd_sc_hd__buf_1
*CAP
1 s2 0.00117012
2 *681:X 0.00117012
3 s2 s3 0
4 s2 *617:D 4.51198e-05
5 s2 *681:A 0.000518295
6 s2 *118:98 0
7 s2 *130:24 7.6997e-05
8 s1 s2 0
*RES
1 *681:X s2 26.2622 
*END

*D_NET *47 0.00103111
*CONN
*P s3 O
*I *682:X O *D sky130_fd_sc_hd__buf_1
*CAP
1 s3 0.000409167
2 *682:X 0.000409167
3 s3 s4 8.6123e-06
4 s3 *615:D 0
5 s3 *683:A 2.89114e-05
6 s2 s3 0
7 *647:A s3 0.000175248
*RES
1 *682:X s3 22.3196 
*END

*D_NET *48 0.000652177
*CONN
*P s4 O
*I *683:X O *D sky130_fd_sc_hd__buf_1
*CAP
1 s4 0.000297977
2 *683:X 0.000297977
3 s4 s5 0
4 s4 *615:D 1.65027e-05
5 s3 s4 8.6123e-06
6 *647:A s4 3.11088e-05
*RES
1 *683:X s4 19.1936 
*END

*D_NET *49 0.000713195
*CONN
*P s5 O
*I *684:X O *D sky130_fd_sc_hd__buf_1
*CAP
1 s5 0.000352291
2 *684:X 0.000352291
3 s5 s6 8.6123e-06
4 s5 *683:A 0
5 s4 s5 0
*RES
1 *684:X s5 21.0874 
*END

*D_NET *50 0.000455068
*CONN
*P s6 O
*I *685:X O *D sky130_fd_sc_hd__buf_1
*CAP
1 s6 0.000220333
2 *685:X 0.000220333
3 s6 s7 0
4 s6 *683:A 5.7903e-06
5 s5 s6 8.6123e-06
*RES
1 *685:X s6 18.1229 
*END

*D_NET *51 0.00110933
*CONN
*P s7 O
*I *686:X O *D sky130_fd_sc_hd__buf_1
*CAP
1 s7 0.000446384
2 *686:X 0.000446384
3 s7 s8 0
4 s7 *686:A 0.000139151
5 s7 *687:A 7.74135e-05
6 s7 *200:14 0
7 s6 s7 0
*RES
1 *686:X s7 21.9819 
*END

*D_NET *52 0.000681136
*CONN
*P s8 O
*I *687:X O *D sky130_fd_sc_hd__buf_1
*CAP
1 s8 0.000336262
2 *687:X 0.000336262
3 s8 s9 8.6123e-06
4 s7 s8 0
*RES
1 *687:X s8 20.7838 
*END

*D_NET *53 0.00074645
*CONN
*P s9 O
*I *688:X O *D sky130_fd_sc_hd__buf_1
*CAP
1 s9 0.000368919
2 *688:X 0.000368919
3 s9 *200:14 0
4 s10 s9 0
5 s8 s9 8.6123e-06
*RES
1 *688:X s9 19.8569 
*END

*D_NET *54 0.000335356
*CONN
*I *552:B1 I *D sky130_fd_sc_hd__a21o_1
*I *551:X O *D sky130_fd_sc_hd__o21ba_1
*CAP
1 *552:B1 0.000137427
2 *551:X 0.000137427
3 *552:B1 *676:A 5.49544e-05
4 *552:B1 *184:12 5.54817e-06
5 s11 *552:B1 0
*RES
1 *551:X *552:B1 29.7786 
*END

*D_NET *55 0.000484125
*CONN
*I *555:A1 I *D sky130_fd_sc_hd__a21oi_1
*I *553:Y O *D sky130_fd_sc_hd__nand2_1
*CAP
1 *555:A1 0.000158687
2 *553:Y 0.000158687
3 *555:A1 *553:A 6.57914e-05
4 *555:A1 *81:10 0.00010096
*RES
1 *553:Y *555:A1 20.7786 
*END

*D_NET *56 0.00148604
*CONN
*I *555:A2 I *D sky130_fd_sc_hd__a21oi_1
*I *556:B1_N I *D sky130_fd_sc_hd__o21ba_1
*I *554:X O *D sky130_fd_sc_hd__or2_1
*CAP
1 *555:A2 9.39742e-05
2 *556:B1_N 0.000192108
3 *554:X 0
4 *56:4 0.000286082
5 *555:A2 *514:B 5.65955e-05
6 *555:A2 *554:B 8.65029e-05
7 *555:A2 *674:A 6.8377e-06
8 *555:A2 *81:10 0.00024722
9 *555:A2 *83:22 2.42516e-05
10 *556:B1_N *514:B 5.65955e-05
11 *556:B1_N *674:A 1.84534e-05
12 *556:B1_N *81:10 9.91033e-05
13 *556:B1_N *130:24 0.000179018
14 *556:B1_N *200:14 9.67754e-05
15 *556:B1_N *200:29 4.25176e-05
16 *556:B1_N *205:14 0
*RES
1 *554:X *56:4 9.3 
2 *56:4 *556:B1_N 22.425 
3 *56:4 *555:A2 12.4429 
*END

*D_NET *57 0.000819386
*CONN
*I *557:B1 I *D sky130_fd_sc_hd__a21o_1
*I *556:X O *D sky130_fd_sc_hd__o21ba_1
*CAP
1 *557:B1 0.000269492
2 *556:X 0.000269492
3 *557:B1 *674:A 7.3565e-05
4 *557:B1 *130:24 0
5 *557:B1 *205:14 0.000154762
6 *557:B1 *207:14 5.20751e-05
*RES
1 *556:X *557:B1 32.6714 
*END

*D_NET *58 0.000522788
*CONN
*I *559:B1 I *D sky130_fd_sc_hd__a21o_1
*I *558:X O *D sky130_fd_sc_hd__o21ba_1
*CAP
1 *559:B1 8.10444e-05
2 *558:X 8.10444e-05
3 *559:B1 *559:A1 0.000140243
4 *559:B1 *559:A2 9.84673e-05
5 *559:B1 *584:D 5.47001e-05
6 *559:B1 *588:D 6.72886e-05
*RES
1 *558:X *559:B1 21.2071 
*END

*D_NET *59 0.00223189
*CONN
*I *562:A3 I *D sky130_fd_sc_hd__a31o_1
*I *564:A1 I *D sky130_fd_sc_hd__a21bo_1
*I *561:Y O *D sky130_fd_sc_hd__nand2_1
*CAP
1 *562:A3 7.76687e-05
2 *564:A1 0
3 *561:Y 0.000427408
4 *59:12 0.000505077
5 *562:A3 *531:A1 4.58976e-05
6 *562:A3 *562:B1 1.98839e-05
7 *562:A3 *564:A2 0.000265447
8 *562:A3 *586:D 0.000221634
9 *59:12 *531:B1 0.000306498
10 *59:12 *587:D 0.000112646
11 *59:12 *88:10 0.000125724
12 *59:12 *177:16 0.00012401
*RES
1 *561:Y *59:12 24.9964 
2 *59:12 *564:A1 9.3 
3 *59:12 *562:A3 12.3 
*END

*D_NET *60 0.00151299
*CONN
*I *564:A2 I *D sky130_fd_sc_hd__a21bo_1
*I *563:Y O *D sky130_fd_sc_hd__a21oi_1
*CAP
1 *564:A2 0.000243338
2 *563:Y 0.000243338
3 *564:A2 *524:B_N 1.02504e-05
4 *564:A2 *525:A 0.00014183
5 *564:A2 *525:B 2.90184e-05
6 *564:A2 *531:A1 2.92636e-05
7 *564:A2 *562:A2 3.67452e-05
8 *564:A2 *562:B1 0.000148286
9 *564:A2 *563:A1 0.000145753
10 *564:A2 *563:A2 1.24368e-05
11 *564:A2 *564:B1_N 1.98839e-05
12 *564:A2 *586:D 2.14757e-05
13 *564:A2 *632:A 0.000137983
14 *564:A2 *89:10 2.26327e-05
15 *564:A2 *100:6 5.30637e-06
16 *562:A3 *564:A2 0.000265447
*RES
1 *563:Y *564:A2 34.8143 
*END

*D_NET *61 0.00238781
*CONN
*I *567:A1 I *D sky130_fd_sc_hd__a21boi_1
*I *566:A2 I *D sky130_fd_sc_hd__a21oi_1
*I *565:Y O *D sky130_fd_sc_hd__nor2_1
*CAP
1 *567:A1 0.000162668
2 *566:A2 0.000136573
3 *565:Y 0.000279526
4 *61:8 0.000578768
5 *566:A2 *588:D 0.0001802
6 *566:A2 *99:14 0.000199878
7 *566:A2 *117:12 8.19734e-05
8 *567:A1 *509:A 6.0038e-05
9 *567:A1 *567:A2 1.02504e-05
10 *567:A1 *99:14 5.74309e-05
11 *567:A1 *117:12 0.00013037
12 *567:A1 *117:48 1.01912e-05
13 *567:A1 *177:16 0
14 *567:A1 *179:18 0.000177773
15 *61:8 *565:A 8.42878e-05
16 *61:8 *99:14 0.00018288
17 *61:8 *99:18 5.50052e-05
*RES
1 *565:Y *61:8 18.8536 
2 *61:8 *566:A2 17.8179 
3 *61:8 *567:A1 19.3893 
*END

*D_NET *62 0.00147018
*CONN
*I *569:A I *D sky130_fd_sc_hd__nand2_1
*I *568:X O *D sky130_fd_sc_hd__or3_1
*CAP
1 *569:A 0.000548267
2 *568:X 0.000548267
3 *569:A *537:B 0
4 *569:A *538:B 0
5 *569:A *565:A 5.85026e-05
6 *569:A *571:A1 1.23589e-05
7 *569:A *99:14 5.23735e-05
8 *569:A *99:18 1.21258e-05
9 *569:A *103:22 5.37741e-06
10 *569:A *186:18 0.000131538
11 *631:A *569:A 0.00010137
*RES
1 *568:X *569:A 35.7964 
*END

*D_NET *63 0.00172826
*CONN
*I *571:A2 I *D sky130_fd_sc_hd__a21oi_1
*I *570:A2 I *D sky130_fd_sc_hd__o21ai_1
*I *569:Y O *D sky130_fd_sc_hd__nand2_1
*CAP
1 *571:A2 2.05003e-05
2 *570:A2 0.000287535
3 *569:Y 7.13195e-05
4 *63:6 0.000379355
5 *570:A2 *509:A 0.000188128
6 *570:A2 *536:A 9.58181e-05
7 *570:A2 *537:A 0
8 *570:A2 *537:B 2.59355e-05
9 *570:A2 *567:B1_N 5.52302e-05
10 *570:A2 *591:D 0.000124445
11 *570:A2 *103:22 0.000107826
12 *570:A2 *179:18 0.000119725
13 *571:A2 *103:22 5.38444e-06
14 *63:6 *571:A1 0.00014801
15 *63:6 *571:B1 4.82865e-05
16 *63:6 *103:22 5.07619e-05
*RES
1 *569:Y *63:6 11.4786 
2 *63:6 *570:A2 24.9964 
3 *63:6 *571:A2 9.72857 
*END

*D_NET *64 0.000689955
*CONN
*I *575:A1 I *D sky130_fd_sc_hd__o21ai_1
*I *573:A2 I *D sky130_fd_sc_hd__a21oi_1
*I *572:Y O *D sky130_fd_sc_hd__nand2_1
*CAP
1 *575:A1 0.000133886
2 *573:A2 9.72234e-05
3 *572:Y 0
4 *64:4 0.00023111
5 *573:A2 *543:A1 6.05161e-06
6 *573:A2 *572:B 3.87535e-05
7 *573:A2 *573:B1 1.75408e-05
8 *575:A1 *593:D 9.67754e-05
9 *575:A1 *155:14 2.11693e-05
10 *575:A1 *218:22 4.74447e-05
*RES
1 *572:Y *64:4 9.3 
2 *64:4 *573:A2 11.4071 
3 *64:4 *575:A1 21.1929 
*END

*D_NET *65 0.00211089
*CONN
*I *575:B1 I *D sky130_fd_sc_hd__o21ai_1
*I *574:Y O *D sky130_fd_sc_hd__nand2_1
*CAP
1 *575:B1 0.000694832
2 *574:Y 0.000694832
3 *575:B1 *541:A1 0
4 *575:B1 *541:A2 2.28598e-05
5 *575:B1 *541:B1 6.54981e-05
6 *575:B1 *574:A 0.000140088
7 *575:B1 *574:B 0.000184522
8 *575:B1 *575:A2 0.000224575
9 *575:B1 *576:A1_N 2.13202e-05
10 *575:B1 *576:B1 6.05161e-06
11 *575:B1 *576:B2 2.50173e-05
12 *575:B1 *593:D 6.05161e-06
13 *575:B1 *110:10 0
14 *575:B1 *169:18 1.10802e-05
15 *575:B1 *192:14 1.41642e-05
*RES
1 *574:Y *575:B1 40.5643 
*END

*D_NET *66 0.00141054
*CONN
*I *578:B1 I *D sky130_fd_sc_hd__o21a_1
*I *577:X O *D sky130_fd_sc_hd__a2bb2o_4
*CAP
1 *578:B1 0.000442874
2 *577:X 0.000442874
3 *578:B1 *549:A3 0.000164536
4 *578:B1 *549:B1 9.84729e-05
5 *578:B1 *549:B2 5.23822e-05
6 *578:B1 *577:A1_N 2.89016e-05
7 *578:B1 *577:A2_N 2.59355e-05
8 *578:B1 *577:B2 4.94455e-05
9 *578:B1 *578:A2 3.84385e-05
10 *578:B1 *111:22 6.41448e-05
11 *578:B1 *169:18 0
12 *578:B1 *197:16 2.53112e-06
*RES
1 *577:X *578:B1 35.9214 
*END

*D_NET *67 0.00190621
*CONN
*I *580:A1 I *D sky130_fd_sc_hd__a21boi_1
*I *579:Y O *D sky130_fd_sc_hd__nand2_1
*CAP
1 *580:A1 0.000556908
2 *579:Y 0.000556908
3 *580:A1 *579:A 1.32293e-05
4 *580:A1 *596:D 0.000510573
5 *580:A1 *121:118 6.82355e-05
6 *580:A1 *121:127 5.98787e-05
7 *580:A1 *158:16 0.000140475
*RES
1 *579:Y *580:A1 28.3143 
*END

*D_NET *68 0.00244326
*CONN
*I *573:B1 I *D sky130_fd_sc_hd__a21oi_1
*I *512:A1 I *D sky130_fd_sc_hd__o221a_1
*I *507:A I *D sky130_fd_sc_hd__or4_4
*I *501:Y O *D sky130_fd_sc_hd__nor2_1
*CAP
1 *573:B1 0.000201805
2 *512:A1 0
3 *507:A 0
4 *501:Y 0.000305835
5 *68:27 0.000464599
6 *68:10 0.000568628
7 *573:B1 *572:B 2.26669e-05
8 *573:B1 *573:A1 5.52302e-05
9 *573:B1 *592:D 3.466e-06
10 *573:B1 *105:10 0.000125724
11 *68:10 *502:B 3.92757e-05
12 *68:10 *506:B 6.09572e-05