*SPEF "ieee 1481-1999"
*DESIGN "adder"
*DATE "10:37:15 Thursday April 17, 2025"
*VENDOR "The OpenROAD Project"
*PROGRAM "OpenROAD"
*VERSION "b16bda7e82721d10566ff7e2b68f1ff0be9f9e38"
*DESIGN_FLOW "NAME_SCOPE LOCAL" "PIN_CAP NONE"
*DIVIDER /
*DELIMITER :
*BUS_DELIMITER []
*T_UNIT 1 NS
*C_UNIT 1 PF
*R_UNIT 1 OHM
*L_UNIT 1 HENRY

*NAME_MAP
*3 a1
*4 a10
*5 a11
*6 a12
*7 a13
*8 a14
*9 a15
*10 a16
*11 a2
*12 a3
*13 a4
*14 a5
*15 a6
*16 a7
*17 a8
*18 a9
*19 b1
*20 b10
*21 b11
*22 b12
*23 b13
*24 b14
*25 b15
*26 b16
*27 b2
*28 b3
*29 b4
*30 b5
*31 b6
*32 b7
*33 b8
*34 b9
*35 cin
*36 clk
*37 cout
*38 s1
*39 s10
*40 s11
*41 s12
*42 s13
*43 s14
*44 s15
*45 s16
*46 s2
*47 s3
*48 s4
*49 s5
*50 s6
*51 s7
*52 s8
*53 s9
*54 _000_
*55 _001_
*56 _002_
*57 _003_
*58 _004_
*59 _005_
*60 _006_
*61 _007_
*62 _008_
*63 _009_
*64 _010_
*65 _011_
*66 _012_
*67 _013_
*68 _014_
*69 _015_
*70 _016_
*71 _017_
*72 _018_
*73 _019_
*74 _020_
*75 _021_
*76 _022_
*77 _023_
*78 _024_
*79 _025_
*80 _026_
*81 _027_
*82 _028_
*83 _029_
*84 _030_
*85 _031_
*86 _032_
*87 _033_
*88 _034_
*89 _035_
*90 _036_
*91 _037_
*92 _038_
*93 _039_
*94 _040_
*95 _041_
*96 _042_
*97 _043_
*98 _044_
*99 _045_
*100 _046_
*101 _047_
*102 _048_
*103 _049_
*104 _050_
*105 _051_
*106 _052_
*107 _053_
*108 _054_
*109 _055_
*110 _056_
*111 _057_
*112 _058_
*113 _059_
*114 _060_
*115 _061_
*116 _062_
*117 clknet_0_clk
*118 clknet_2_0__leaf_clk
*119 clknet_2_1__leaf_clk
*120 clknet_2_2__leaf_clk
*121 clknet_2_3__leaf_clk
*122 net1
*123 net10
*124 net11
*125 net12
*126 net13
*127 net14
*128 net15
*129 net16
*130 net17
*131 net18
*132 net19
*133 net2
*134 net20
*135 net21
*136 net22
*137 net23
*138 net24
*139 net25
*140 net26
*141 net27
*142 net28
*143 net29
*144 net3
*145 net30
*146 net31
*147 net32
*148 net33
*149 net34
*150 net35
*151 net36
*152 net37
*153 net38
*154 net39
*155 net4
*156 net40
*157 net41
*158 net42
*159 net43
*160 net44
*161 net45
*162 net46
*163 net47
*164 net48
*165 net49
*166 net5
*167 net50
*168 net51
*169 net6
*170 net7
*171 net8
*172 net9
*173 x10\.A
*174 x10\.B
*175 x12\.A
*176 x12\.B
*177 x14\.A
*178 x14\.B
*179 x16\.A
*180 x16\.B
*181 x18\.A
*182 x18\.B
*183 x2\.A
*184 x2\.B
*185 x20\.A
*186 x20\.B
*187 x22\.A
*188 x22\.B
*189 x24\.A
*190 x24\.B
*191 x26\.A
*192 x26\.B
*193 x28\.A
*194 x28\.B
*195 x30\.A
*196 x30\.B
*197 x32\.A
*198 x32\.B
*199 x4\.A
*200 x4\.B
*201 x47\.c
*202 x6\.A
*203 x6\.B
*204 x62\.C
*205 x63\.S
*206 x64\.S
*207 x65\.S
*208 x66\.S
*209 x67\.S
*210 x68\.S
*211 x69\.S
*212 x70\.S
*213 x71\.S
*214 x72\.S
*215 x73\.S
*216 x74\.S
*217 x75\.S
*218 x76\.S
*219 x77\.S
*220 x78\.S
*221 x8\.A
*222 x8\.B
*223 FILLER_0_0_107
*224 FILLER_0_0_111
*225 FILLER_0_0_116
*226 FILLER_0_0_29
*227 FILLER_0_0_49
*228 FILLER_0_0_57
*229 FILLER_0_0_62
*230 FILLER_0_0_71
*231 FILLER_0_0_80
*232 FILLER_0_0_85
*233 FILLER_0_0_89
*234 FILLER_0_0_98
*235 FILLER_0_10_106
*236 FILLER_0_10_123
*237 FILLER_0_10_3
*238 FILLER_0_10_45
*239 FILLER_0_10_57
*240 FILLER_0_10_83
*241 FILLER_0_11_110
*242 FILLER_0_11_119
*243 FILLER_0_11_123
*244 FILLER_0_11_15
*245 FILLER_0_11_57
*246 FILLER_0_11_63
*247 FILLER_0_11_84
*248 FILLER_0_11_9
*249 FILLER_0_11_97
*250 FILLER_0_12_110
*251 FILLER_0_12_122
*252 FILLER_0_12_33
*253 FILLER_0_12_38
*254 FILLER_0_12_55
*255 FILLER_0_12_63
*256 FILLER_0_12_82
*257 FILLER_0_12_85
*258 FILLER_0_13_109
*259 FILLER_0_13_119
*260 FILLER_0_13_123
*261 FILLER_0_13_16
*262 FILLER_0_13_3
*263 FILLER_0_13_35
*264 FILLER_0_13_39
*265 FILLER_0_13_57
*266 FILLER_0_13_69
*267 FILLER_0_13_75
*268 FILLER_0_13_82
*269 FILLER_0_13_9
*270 FILLER_0_13_98
*271 FILLER_0_14_105
*272 FILLER_0_14_111
*273 FILLER_0_14_123
*274 FILLER_0_14_13
*275 FILLER_0_14_22
*276 FILLER_0_14_29
*277 FILLER_0_14_37
*278 FILLER_0_14_55
*279 FILLER_0_14_67
*280 FILLER_0_14_79
*281 FILLER_0_14_83
*282 FILLER_0_14_85
*283 FILLER_0_14_9
*284 FILLER_0_14_97
*285 FILLER_0_15_113
*286 FILLER_0_15_20
*287 FILLER_0_15_28
*288 FILLER_0_15_52
*289 FILLER_0_15_73
*290 FILLER_0_15_85
*291 FILLER_0_15_95
*292 FILLER_0_16_122
*293 FILLER_0_16_27
*294 FILLER_0_16_29
*295 FILLER_0_16_3
*296 FILLER_0_16_41
*297 FILLER_0_16_53
*298 FILLER_0_16_65
*299 FILLER_0_16_83
*300 FILLER_0_16_85
*301 FILLER_0_17_111
*302 FILLER_0_17_123
*303 FILLER_0_17_40
*304 FILLER_0_17_52
*305 FILLER_0_17_57
*306 FILLER_0_17_6
*307 FILLER_0_17_93
*308 FILLER_0_18_101
*309 FILLER_0_18_123
*310 FILLER_0_18_26
*311 FILLER_0_18_29
*312 FILLER_0_18_46
*313 FILLER_0_18_58
*314 FILLER_0_18_70
*315 FILLER_0_18_9
*316 FILLER_0_19_113
*317 FILLER_0_19_36
*318 FILLER_0_19_73
*319 FILLER_0_19_93
*320 FILLER_0_1_102
*321 FILLER_0_1_110
*322 FILLER_0_1_113
*323 FILLER_0_1_121
*324 FILLER_0_1_20
*325 FILLER_0_1_3
*326 FILLER_0_1_38
*327 FILLER_0_1_57
*328 FILLER_0_1_61
*329 FILLER_0_1_78
*330 FILLER_0_1_90
*331 FILLER_0_20_119
*332 FILLER_0_20_20
*333 FILLER_0_20_26
*334 FILLER_0_20_29
*335 FILLER_0_20_3
*336 FILLER_0_20_35
*337 FILLER_0_20_44
*338 FILLER_0_20_53
*339 FILLER_0_20_57
*340 FILLER_0_20_62
*341 FILLER_0_20_71
*342 FILLER_0_20_80
*343 FILLER_0_20_85
*344 FILLER_0_20_89
*345 FILLER_0_2_101
*346 FILLER_0_2_120
*347 FILLER_0_2_27
*348 FILLER_0_2_32
*349 FILLER_0_2_44
*350 FILLER_0_2_64
*351 FILLER_0_2_9
*352 FILLER_0_3_110
*353 FILLER_0_3_113
*354 FILLER_0_3_121
*355 FILLER_0_3_22
*356 FILLER_0_3_34
*357 FILLER_0_3_46
*358 FILLER_0_3_54
*359 FILLER_0_3_57
*360 FILLER_0_3_74
*361 FILLER_0_3_86
*362 FILLER_0_3_98
*363 FILLER_0_4_112
*364 FILLER_0_4_21
*365 FILLER_0_4_27
*366 FILLER_0_4_3
*367 FILLER_0_4_53
*368 FILLER_0_4_65
*369 FILLER_0_4_77
*370 FILLER_0_4_83
*371 FILLER_0_4_85
*372 FILLER_0_4_93
*373 FILLER_0_5_100
*374 FILLER_0_5_113
*375 FILLER_0_5_121
*376 FILLER_0_5_29
*377 FILLER_0_5_76
*378 FILLER_0_5_88
*379 FILLER_0_5_9
*380 FILLER_0_6_120
*381 FILLER_0_6_29
*382 FILLER_0_6_6
*383 FILLER_0_6_83
*384 FILLER_0_6_85
*385 FILLER_0_7_116
*386 FILLER_0_7_19
*387 FILLER_0_7_31
*388 FILLER_0_7_39
*389 FILLER_0_7_45
*390 FILLER_0_7_50
*391 FILLER_0_7_67
*392 FILLER_0_7_79
*393 FILLER_0_8_123
*394 FILLER_0_8_19
*395 FILLER_0_8_37
*396 FILLER_0_8_49
*397 FILLER_0_8_73
*398 FILLER_0_8_81
*399 FILLER_0_8_85
*400 FILLER_0_8_89
*401 FILLER_0_9_106
*402 FILLER_0_9_113
*403 FILLER_0_9_121
*404 FILLER_0_9_21
*405 FILLER_0_9_33
*406 FILLER_0_9_45
*407 FILLER_0_9_53
*408 FILLER_0_9_57
*409 FILLER_0_9_69
*410 FILLER_0_9_80
*411 FILLER_0_9_9
*412 FILLER_0_9_91
*413 PHY_EDGE_ROW_0_Left_21
*414 PHY_EDGE_ROW_0_Right_0
*415 PHY_EDGE_ROW_10_Left_31
*416 PHY_EDGE_ROW_10_Right_10
*417 PHY_EDGE_ROW_11_Left_32
*418 PHY_EDGE_ROW_11_Right_11
*419 PHY_EDGE_ROW_12_Left_33
*420 PHY_EDGE_ROW_12_Right_12
*421 PHY_EDGE_ROW_13_Left_34
*422 PHY_EDGE_ROW_13_Right_13
*423 PHY_EDGE_ROW_14_Left_35
*424 PHY_EDGE_ROW_14_Right_14
*425 PHY_EDGE_ROW_15_Left_36
*426 PHY_EDGE_ROW_15_Right_15
*427 PHY_EDGE_ROW_16_Left_37
*428 PHY_EDGE_ROW_16_Right_16
*429 PHY_EDGE_ROW_17_Left_38
*430 PHY_EDGE_ROW_17_Right_17
*431 PHY_EDGE_ROW_18_Left_39
*432 PHY_EDGE_ROW_18_Right_18
*433 PHY_EDGE_ROW_19_Left_40
*434 PHY_EDGE_ROW_19_Right_19
*435 PHY_EDGE_ROW_1_Left_22
*436 PHY_EDGE_ROW_1_Right_1
*437 PHY_EDGE_ROW_20_Left_41
*438 PHY_EDGE_ROW_20_Right_20
*439 PHY_EDGE_ROW_2_Left_23
*440 PHY_EDGE_ROW_2_Right_2
*441 PHY_EDGE_ROW_3_Left_24
*442 PHY_EDGE_ROW_3_Right_3
*443 PHY_EDGE_ROW_4_Left_25
*444 PHY_EDGE_ROW_4_Right_4
*445 PHY_EDGE_ROW_5_Left_26
*446 PHY_EDGE_ROW_5_Right_5
*447 PHY_EDGE_ROW_6_Left_27
*448 PHY_EDGE_ROW_6_Right_6
*449 PHY_EDGE_ROW_7_Left_28
*450 PHY_EDGE_ROW_7_Right_7
*451 PHY_EDGE_ROW_8_Left_29
*452 PHY_EDGE_ROW_8_Right_8
*453 PHY_EDGE_ROW_9_Left_30
*454 PHY_EDGE_ROW_9_Right_9
*455 TAP_TAPCELL_ROW_0_42
*456 TAP_TAPCELL_ROW_0_43
*457 TAP_TAPCELL_ROW_0_44
*458 TAP_TAPCELL_ROW_0_45
*459 TAP_TAPCELL_ROW_10_64
*460 TAP_TAPCELL_ROW_10_65
*461 TAP_TAPCELL_ROW_11_66
*462 TAP_TAPCELL_ROW_11_67
*463 TAP_TAPCELL_ROW_12_68
*464 TAP_TAPCELL_ROW_12_69
*465 TAP_TAPCELL_ROW_13_70
*466 TAP_TAPCELL_ROW_13_71
*467 TAP_TAPCELL_ROW_14_72
*468 TAP_TAPCELL_ROW_14_73
*469 TAP_TAPCELL_ROW_15_74
*470 TAP_TAPCELL_ROW_15_75
*471 TAP_TAPCELL_ROW_16_76
*472 TAP_TAPCELL_ROW_16_77
*473 TAP_TAPCELL_ROW_17_78
*474 TAP_TAPCELL_ROW_17_79
*475 TAP_TAPCELL_ROW_18_80
*476 TAP_TAPCELL_ROW_18_81
*477 TAP_TAPCELL_ROW_19_82
*478 TAP_TAPCELL_ROW_19_83
*479 TAP_TAPCELL_ROW_1_46
*480 TAP_TAPCELL_ROW_1_47
*481 TAP_TAPCELL_ROW_20_84
*482 TAP_TAPCELL_ROW_20_85
*483 TAP_TAPCELL_ROW_20_86
*484 TAP_TAPCELL_ROW_20_87
*485 TAP_TAPCELL_ROW_2_48
*486 TAP_TAPCELL_ROW_2_49
*487 TAP_TAPCELL_ROW_3_50
*488 TAP_TAPCELL_ROW_3_51
*489 TAP_TAPCELL_ROW_4_52
*490 TAP_TAPCELL_ROW_4_53
*491 TAP_TAPCELL_ROW_5_54
*492 TAP_TAPCELL_ROW_5_55
*493 TAP_TAPCELL_ROW_6_56
*494 TAP_TAPCELL_ROW_6_57
*495 TAP_TAPCELL_ROW_7_58
*496 TAP_TAPCELL_ROW_7_59
*497 TAP_TAPCELL_ROW_8_60
*498 TAP_TAPCELL_ROW_8_61
*499 TAP_TAPCELL_ROW_9_62
*500 TAP_TAPCELL_ROW_9_63
*501 _063_
*502 _064_
*503 _065_
*504 _066_
*505 _067_
*506 _068_
*507 _069_
*508 _070_
*509 _071_
*510 _072_
*511 _073_
*512 _074_
*513 _075_
*514 _076_
*515 _077_
*516 _078_
*517 _079_
*518 _080_
*519 _081_
*520 _082_
*521 _083_
*522 _084_
*523 _085_
*524 _086_
*525 _087_
*526 _088_
*527 _089_
*528 _090_
*529 _091_
*530 _092_
*531 _093_
*532 _094_
*533 _095_
*534 _096_
*535 _097_
*536 _098_
*537 _099_
*538 _100_
*539 _101_
*540 _102_
*541 _103_
*542 _104_
*543 _105_
*544 _106_
*545 _107_
*546 _108_
*547 _109_
*548 _110_
*549 _111_
*550 _112_
*551 _113_
*552 _114_
*553 _115_
*554 _116_
*555 _117_
*556 _118_
*557 _119_
*558 _120_
*559 _121_
*560 _122_
*561 _123_
*562 _124_
*563 _125_
*564 _126_
*565 _127_
*566 _128_
*567 _129_
*568 _130_
*569 _131_
*570 _132_
*571 _133_
*572 _134_
*573 _135_
*574 _136_
*575 _137_
*576 _138_
*577 _139_
*578 _140_
*579 _141_
*580 _142_
*581 _143_
*582 _144_
*583 _145_
*584 _146_
*585 _147_
*586 _148_
*587 _149_
*588 _150_
*589 _151_
*590 _152_
*591 _153_
*592 _154_
*593 _155_
*594 _156_
*595 _157_
*596 _158_
*597 _159_
*598 _160_
*599 _161_
*600 _162_
*601 _163_
*602 _164_
*603 _165_
*604 _166_
*605 _167_
*606 _168_
*607 _169_
*608 _170_
*609 _171_
*610 _172_
*611 _173_
*612 _174_
*613 _175_
*614 _176_
*615 _177_
*616 _178_
*617 _179_
*618 _180_
*619 _181_
*620 _182_
*621 _183_
*622 _184_
*623 _185_
*624 _186_
*625 _187_
*626 _188_
*627 _189_
*628 _190_
*629 _191_
*630 _192_
*631 clkbuf_0_clk
*632 clkbuf_2_0__f_clk
*633 clkbuf_2_1__f_clk
*634 clkbuf_2_2__f_clk
*635 clkbuf_2_3__f_clk
*636 clkload0
*637 clkload1
*638 clkload2
*639 input1
*640 input10
*641 input11
*642 input12
*643 input13
*644 input14
*645 input15
*646 input16
*647 input17
*648 input18
*649 input19
*650 input2
*651 input20
*652 input21
*653 input22
*654 input23
*655 input24
*656 input25
*657 input26
*658 input27
*659 input28
*660 input29
*661 input3
*662 input30
*663 input31
*664 input32
*665 input33
*666 input4
*667 input5
*668 input6
*669 input7
*670 input8
*671 input9
*672 output34
*673 output35
*674 output36
*675 output37
*676 output38
*677 output39
*678 output40
*679 output41
*680 output42
*681 output43
*682 output44
*683 output45
*684 output46
*685 output47
*686 output48
*687 output49
*688 output50
*689 rebuffer1

*PORTS
a1 I
a10 I
a11 I
a12 I
a13 I
a14 I
a15 I
a16 I
a2 I
a3 I
a4 I
a5 I
a6 I
a7 I
a8 I
a9 I
b1 I
b10 I
b11 I
b12 I
b13 I
b14 I
b15 I
b16 I
b2 I
b3 I
b4 I
b5 I
b6 I
b7 I
b8 I
b9 I
cin I
clk I
cout O
s1 O
s10 O
s11 O
s12 O
s13 O
s14 O
s15 O
s16 O
s2 O
s3 O
s4 O
s5 O
s6 O
s7 O
s8 O
s9 O

*D_NET *3 0.00198512
*CONN
*P a1 I
*I *639:A I *D sky130_fd_sc_hd__clkbuf_1
*CAP
1 a1 0.0007249
2 *639:A 0.0007249
3 *639:A s15 0.000394176
4 *639:A *599:D 1.79174e-05
5 *639:A *671:A 4.66108e-05
6 *639:A *679:A 7.66183e-05
*RES
1 a1 *639:A 17.595 
*END

*D_NET *4 0.00102998
*CONN
*P a10 I
*I *650:A I *D sky130_fd_sc_hd__clkbuf_1
*CAP
1 a10 0.000497724
2 *650:A 0.000497724
3 *650:A *607:D 2.86975e-05
4 *650:A *608:D 5.83121e-06
5 *650:A *646:A 0
6 *650:A *661:A 0
*RES
1 a10 *650:A 12.315 
*END

*D_NET *5 0.00104039
*CONN
*P a11 I
*I *661:A I *D sky130_fd_sc_hd__clkbuf_1
*CAP
1 a11 0.00050624
2 *661:A 0.00050624
3 *661:A *608:D 2.79137e-05
4 *661:A *666:A 0
5 *650:A *661:A 0
*RES
1 a11 *661:A 12.315 
*END

*D_NET *6 0.000979043
*CONN
*P a12 I
*I *666:A I *D sky130_fd_sc_hd__clkbuf_1
*CAP
1 a12 0.000437244
2 *666:A 0.000437244
3 *666:A *609:D 2.69153e-05
4 *666:A *613:CLK 7.76394e-05
5 *666:A *667:A 0
6 *661:A *666:A 0
*RES
1 a12 *666:A 11.625 
*END

*D_NET *7 0.00170468
*CONN
*P a13 I
*I *667:A I *D sky130_fd_sc_hd__clkbuf_1
*CAP
1 a13 0.0005783
2 *667:A 0.0005783
3 *667:A *613:D 0.00046162
4 *667:A *668:A 8.64566e-05
5 *666:A *667:A 0
*RES
1 a13 *667:A 15.42 
*END

*D_NET *8 0.00124519
*CONN
*P a14 I
*I *668:A I *D sky130_fd_sc_hd__clkbuf_1
*CAP
1 a14 0.000546346
2 *668:A 0.000546346
3 *668:A *613:D 6.60431e-05
4 *668:A *669:A 0
5 *667:A *668:A 8.64566e-05
*RES
1 a14 *668:A 13.665 
*END

*D_NET *9 0.000980336
*CONN
*P a15 I
*I *669:A I *D sky130_fd_sc_hd__clkbuf_1
*CAP
1 a15 0.000490168
2 *669:A 0.000490168
3 *669:A *670:A 0
4 *668:A *669:A 0
*RES
1 a15 *669:A 11.97 
*END

*D_NET *10 0.00138385
*CONN
*P a16 I
*I *670:A I *D sky130_fd_sc_hd__clkbuf_1
*CAP
1 a16 0.000691925
2 *670:A 0.000691925
3 *670:A *613:D 0
4 *669:A *670:A 0
*RES
1 a16 *670:A 15.48 
*END

*D_NET *11 0.00104233
*CONN
*P a2 I
*I *671:A I *D sky130_fd_sc_hd__clkbuf_1
*CAP
1 a2 0.000437528
2 *671:A 0.000437528
3 *671:A s15 0
4 *671:A s16 0.000120663
5 *671:A *640:A 0
6 *639:A *671:A 4.66108e-05
*RES
1 a2 *671:A 11.625 
*END

*D_NET *12 0.00113449
*CONN
*P a3 I
*I *640:A I *D sky130_fd_sc_hd__clkbuf_1
*CAP
1 a3 0.000524025
2 *640:A 0.000524025
3 *640:A cout 0
4 *640:A s16 0
5 *640:A *641:A 0
6 *640:A *679:A 8.64421e-05
7 *671:A *640:A 0
*RES
1 a3 *640:A 12.42 
*END

*D_NET *13 0.00109091
*CONN
*P a4 I
*I *641:A I *D sky130_fd_sc_hd__clkbuf_1
*CAP
1 a4 0.000483478
2 *641:A 0.000483478
3 *641:A cout 0
4 *641:A *642:A 0
5 *641:A *672:A 0.000123955
6 *640:A *641:A 0
*RES
1 a4 *641:A 12.315 
*END

*D_NET *14 0.000948754
*CONN
*P a5 I
*I *642:A I *D sky130_fd_sc_hd__clkbuf_1
*CAP
1 a5 0.000449907
2 *642:A 0.000449907
3 *642:A *643:A 0
4 *642:A *672:A 4.89395e-05
5 *641:A *642:A 0
*RES
1 a5 *642:A 11.625 
*END

*D_NET *15 0.001072
*CONN
*P a6 I
*I *643:A I *D sky130_fd_sc_hd__clkbuf_1
*CAP
1 a6 0.000474011
2 *643:A 0.000474011
3 *643:A *644:A 0
4 *643:A *672:A 0.00012398
5 *642:A *643:A 0
*RES
1 a6 *643:A 12.315 
*END

*D_NET *16 0.00106031
*CONN
*P a7 I
*I *644:A I *D sky130_fd_sc_hd__clkbuf_1
*CAP
1 a7 0.000486927
2 *644:A 0.000486927
3 *644:A *645:A 0
4 *644:A *672:A 8.64565e-05
5 *643:A *644:A 0
*RES
1 a7 *644:A 12.525 
*END

*D_NET *17 0.000944929
*CONN
*P a8 I
*I *645:A I *D sky130_fd_sc_hd__clkbuf_1
*CAP
1 a8 0.000447995
2 *645:A 0.000447995
3 *645:A *646:A 0
4 *645:A *672:A 4.89395e-05
5 *644:A *645:A 0
*RES
1 a8 *645:A 11.625 
*END

*D_NET *18 0.001072
*CONN
*P a9 I
*I *646:A I *D sky130_fd_sc_hd__clkbuf_1
*CAP
1 a9 0.000474011
2 *646:A 0.000474011
3 *646:A *672:A 0.00012398
4 *645:A *646:A 0
5 *650:A *646:A 0
*RES
1 a9 *646:A 12.315 
*END

*D_NET *19 0.00321079
*CONN
*P b1 I
*I *647:A I *D sky130_fd_sc_hd__clkbuf_1
*CAP
1 b1 0.00130316
2 *647:A 0.00130316
3 *647:A s3 0.000164407
4 *647:A s4 2.88357e-05
5 *647:A *614:D 0.000181176
6 *647:A *615:D 0
7 *647:A *616:D 0.000183439
8 *647:A *656:A 0
9 *647:A *683:A 4.66108e-05
*RES
1 b1 *647:A 27.225 
*END

*D_NET *20 0.000884146
*CONN
*P b10 I
*I *648:A I *D sky130_fd_sc_hd__clkbuf_1
*CAP
1 b10 0.00043319
2 *648:A 0.00043319
3 *648:A *623:D 1.77665e-05
4 *648:A *649:A 0
5 *648:A *664:A 0
*RES
1 b10 *648:A 11.04 
*END

*D_NET *21 0.000985302
*CONN
*P b11 I
*I *649:A I *D sky130_fd_sc_hd__clkbuf_1
*CAP
1 b11 0.000492651
2 *649:A 0.000492651
3 *649:A *651:A 0
4 *648:A *649:A 0
*RES
1 b11 *649:A 11.94 
*END

*D_NET *22 0.000877785
*CONN
*P b12 I
*I *651:A I *D sky130_fd_sc_hd__clkbuf_1
*CAP
1 b12 0.000438892
2 *651:A 0.000438892
3 *651:A *652:A 0
4 *649:A *651:A 0
*RES
1 b12 *651:A 11.04 
*END

*D_NET *23 0.000877785
*CONN
*P b13 I
*I *652:A I *D sky130_fd_sc_hd__clkbuf_1
*CAP
1 b13 0.000438892
2 *652:A 0.000438892
3 *652:A *653:A 0
4 *651:A *652:A 0
*RES
1 b13 *652:A 11.04 
*END

*D_NET *24 0.000885635
*CONN
*P b14 I
*I *653:A I *D sky130_fd_sc_hd__clkbuf_1
*CAP
1 b14 0.00042338
2 *653:A 0.00042338
3 *653:A *627:D 1.77665e-05
4 *653:A *629:D 2.11084e-05
5 *653:A *654:A 0
6 *652:A *653:A 0
*RES
1 b14 *653:A 11.04 
*END

*D_NET *25 0.000909135
*CONN
*P b15 I
*I *654:A I *D sky130_fd_sc_hd__clkbuf_1
*CAP
1 b15 0.000411269
2 *654:A 0.000411269
3 *654:A *655:A 8.65961e-05
4 *653:A *654:A 0
*RES
1 b15 *654:A 10.695 
*END

*D_NET *26 0.00127214
*CONN
*P b16 I
*I *655:A I *D sky130_fd_sc_hd__clkbuf_1
*CAP
1 b16 0.000592774
2 *655:A 0.000592774
3 *654:A *655:A 8.65961e-05
*RES
1 b16 *655:A 13.56 
*END

*D_NET *27 0.000818444
*CONN
*P b2 I
*I *656:A I *D sky130_fd_sc_hd__clkbuf_1
*CAP
1 b2 0.000409222
2 *656:A 0.000409222
3 *656:A *657:A 0
4 *647:A *656:A 0
*RES
1 b2 *656:A 10.35 
*END

*D_NET *28 0.00123565
*CONN
*P b3 I
*I *657:A I *D sky130_fd_sc_hd__clkbuf_1
*CAP
1 b3 0.000505416
2 *657:A 0.000505416
3 *657:A s1 0
4 *657:A *616:D 1.33293e-05
5 *657:A *658:A 0.000163199
6 *657:A *681:A 4.82863e-05
7 *656:A *657:A 0
*RES
1 b3 *657:A 12.525 
*END

*D_NET *29 0.00157663
*CONN
*P b4 I
*I *658:A I *D sky130_fd_sc_hd__clkbuf_1
*CAP
1 b4 0.000467576
2 *658:A 0.000467576
3 *658:A s1 0.000159012
4 *658:A *616:D 4.9253e-06
5 *658:A *617:D 0.00013567
6 *658:A *659:A 0
7 *658:A *681:A 0.000178672
8 *657:A *658:A 0.000163199
*RES
1 b4 *658:A 14.7 
*END

*D_NET *30 0.000838069
*CONN
*P b5 I
*I *659:A I *D sky130_fd_sc_hd__clkbuf_1
*CAP
1 b5 0.000392672
2 *659:A 0.000392672
3 *659:A *582:D 4.43871e-06
4 *659:A *618:CLK 4.82863e-05
5 *659:A *660:A 0
6 *658:A *659:A 0
*RES
1 b5 *659:A 10.35 
*END

*D_NET *31 0.00158687
*CONN
*P b6 I
*I *660:A I *D sky130_fd_sc_hd__clkbuf_1
*CAP
1 b6 0.000694775
2 *660:A 0.000694775
3 *660:A *619:D 1.52418e-05
4 *660:A *620:D 0.000123121
5 *660:A *662:A 4.82919e-05
6 *660:A *174:14 1.06624e-05
7 *659:A *660:A 0
*RES
1 b6 *660:A 15.285 
*END

*D_NET *32 0.000823852
*CONN
*P b7 I
*I *662:A I *D sky130_fd_sc_hd__clkbuf_1
*CAP
1 b7 0.000378587
2 *662:A 0.000378587
3 *662:A *663:A 0
4 *662:A *174:14 1.83847e-05
5 *660:A *662:A 4.82919e-05
*RES
1 b7 *662:A 10.35 
*END

*D_NET *33 0.000815768
*CONN
*P b8 I
*I *663:A I *D sky130_fd_sc_hd__clkbuf_1
*CAP
1 b8 0.000381947
2 *663:A 0.000381947
3 *663:A *620:D 5.1875e-05
4 *663:A *664:A 0
5 *662:A *663:A 0
*RES
1 b8 *663:A 10.35 
*END

*D_NET *34 0.000877785
*CONN
*P b9 I
*I *664:A I *D sky130_fd_sc_hd__clkbuf_1
*CAP
1 b9 0.000438892
2 *664:A 0.000438892
3 *648:A *664:A 0
4 *663:A *664:A 0
*RES
1 b9 *664:A 11.04 
*END

*D_NET *35 0.00101406
*CONN
*P cin I
*I *665:A I *D sky130_fd_sc_hd__clkbuf_1
*CAP
1 cin 0.000372976
2 *665:A 0.000372976
3 *665:A *578:A1 3.446e-05
4 *665:A *195:12 0.000147831
5 *665:A *196:21 8.58136e-05
*RES
1 cin *665:A 8.8685 
*END

*D_NET *36 0.00600758
*CONN
*P clk I
*I *631:A I *D sky130_fd_sc_hd__clkbuf_16
*CAP
1 clk 0.00274395
2 *631:A 0.00274395
3 *631:A *569:A 9.22308e-05
4 *631:A *625:D 0.000124822
5 *631:A *634:A 4.4101e-05
6 *631:A *186:18 0.00025852
*RES
1 clk *631:A 13.1155 
*END

*D_NET *37 0.00165295
*CONN
*P cout O
*I *672:X O *D sky130_fd_sc_hd__buf_1
*CAP
1 cout 0.000818779
2 *672:X 0.000818779
3 cout s16 0
4 cout *679:A 1.53871e-05
5 *640:A cout 0
6 *641:A cout 0
*RES
1 *672:X cout 9.74077 
*END

*D_NET *38 0.00407873
*CONN
*P s1 O
*I *673:X O *D sky130_fd_sc_hd__buf_1
*CAP
1 s1 0.00149122
2 *673:X 0.00149122
3 s1 s2 0
4 s1 *583:D 0
5 s1 *614:D 0.000284688
6 s1 *616:D 0
7 s1 *681:A 0.000574989
8 s1 *684:A 7.76015e-05
9 *657:A s1 0
10 *658:A s1 0.000159012
*RES
1 *673:X s1 23.2258 
*END

*D_NET *39 0.00052963
*CONN
*P s10 O
*I *674:X O *D sky130_fd_sc_hd__buf_1
*CAP
1 s10 0.000264815
2 *674:X 0.000264815
3 s10 s11 0
4 s10 s9 0
5 s10 *200:14 0
*RES
1 *674:X s10 5.7485 
*END

*D_NET *40 0.000693601
*CONN
*P s11 O
*I *675:X O *D sky130_fd_sc_hd__buf_1
*CAP
1 s11 0.000346801
2 *675:X 0.000346801
3 s11 s12 0
4 s11 *552:B1 0
5 s10 s11 0
*RES
1 *675:X s11 6.04157 
*END

*D_NET *41 0.000536657
*CONN
*P s12 O
*I *676:X O *D sky130_fd_sc_hd__buf_1
*CAP
1 s12 0.000268328
2 *676:X 0.000268328
3 s12 s13 0
4 s12 *201:12 0
5 s11 s12 0
*RES
1 *676:X s12 5.7485 
*END

*D_NET *42 0.000644468
*CONN
*P s13 O
*I *677:X O *D sky130_fd_sc_hd__buf_1
*CAP
1 s13 0.000319081
2 *677:X 0.000319081
3 s13 s14 6.30563e-06
4 s13 *677:A 0
5 s12 s13 0
*RES
1 *677:X s13 7.3443 
*END

*D_NET *43 0.000624522
*CONN
*P s14 O
*I *678:X O *D sky130_fd_sc_hd__buf_1
*CAP
1 s14 0.000302417
2 *678:X 0.000302417
3 s14 s15 8.67624e-06
4 s14 *119:114 4.7072e-06
5 s13 s14 6.30563e-06
*RES
1 *678:X s14 7.0893 
*END

*D_NET *44 0.00117857
*CONN
*P s15 O
*I *679:X O *D sky130_fd_sc_hd__buf_1
*CAP
1 s15 0.000387859
2 *679:X 0.000387859
3 s15 s16 0
4 s14 s15 8.67624e-06
5 *639:A s15 0.000394176
6 *671:A s15 0
*RES
1 *679:X s15 10.1504 
*END

*D_NET *45 0.00154648
*CONN
*P s16 O
*I *680:X O *D sky130_fd_sc_hd__buf_1
*CAP
1 s16 0.000546296
2 *680:X 0.000546296
3 s16 *599:D 0.000241576
4 s16 *119:114 9.16511e-05
5 cout s16 0
6 s15 s16 0
7 *640:A s16 0
8 *671:A s16 0.000120663
*RES
1 *680:X s16 10.0033 
*END

*D_NET *46 0.00272955
*CONN
*P s2 O
*I *681:X O *D sky130_fd_sc_hd__buf_1
*CAP
1 s2 0.0010676
2 *681:X 0.0010676
3 s2 s3 0
4 s2 *614:D 7.01303e-05
5 s2 *617:D 4.746e-05
6 s2 *681:A 0.000476758
7 s2 *118:98 0
8 s1 s2 0
*RES
1 *681:X s2 11.6356 
*END

*D_NET *47 0.000935104
*CONN
*P s3 O
*I *682:X O *D sky130_fd_sc_hd__buf_1
*CAP
1 s3 0.000367249
2 *682:X 0.000367249
3 s3 s4 8.67624e-06
4 s3 *615:D 0
5 s3 *683:A 2.75229e-05
6 s2 s3 0
7 *647:A s3 0.000164407
*RES
1 *682:X s3 8.3793 
*END

*D_NET *48 0.000597257
*CONN
*P s4 O
*I *683:X O *D sky130_fd_sc_hd__buf_1
*CAP
1 s4 0.000271013
2 *683:X 0.000271013
3 s4 s5 0
4 s4 *615:D 1.77198e-05
5 s3 s4 8.67624e-06
6 *647:A s4 2.88357e-05
*RES
1 *683:X s4 5.7485 
*END

*D_NET *49 0.000652008
*CONN
*P s5 O
*I *684:X O *D sky130_fd_sc_hd__buf_1
*CAP
1 s5 0.000321666
2 *684:X 0.000321666
3 s5 s6 8.67624e-06
4 s5 *683:A 0
5 s4 s5 0
*RES
1 *684:X s5 7.3443 
*END

*D_NET *50 0.000426365
*CONN
*P s6 O
*I *685:X O *D sky130_fd_sc_hd__buf_1
*CAP
1 s6 0.000205763
2 *685:X 0.000205763
3 s6 s7 0
4 s6 *683:A 6.16226e-06
5 s5 s6 8.67624e-06
*RES
1 *685:X s6 4.84677 
*END

*D_NET *51 0.00102971
*CONN
*P s7 O
*I *686:X O *D sky130_fd_sc_hd__buf_1
*CAP
1 s7 0.000412024
2 *686:X 0.000412024
3 s7 s8 0
4 s7 *686:A 0.000135331
5 s7 *687:A 7.03276e-05
6 s7 *200:14 0
7 s6 s7 0
*RES
1 *686:X s7 8.08157 
*END

*D_NET *52 0.00062169
*CONN
*P s8 O
*I *687:X O *D sky130_fd_sc_hd__buf_1
*CAP
1 s8 0.000306507
2 *687:X 0.000306507
3 s8 s9 8.67624e-06
4 s7 s8 0
*RES
1 *687:X s8 7.0893 
*END

*D_NET *53 0.000694586
*CONN
*P s9 O
*I *688:X O *D sky130_fd_sc_hd__buf_1
*CAP
1 s9 0.000342955
2 *688:X 0.000342955
3 s9 *200:14 0
4 s10 s9 0
5 s8 s9 8.67624e-06
*RES
1 *688:X s9 6.29657 
*END

*D_NET *54 0.000298415
*CONN
*I *552:B1 I *D sky130_fd_sc_hd__a21o_1
*I *551:X O *D sky130_fd_sc_hd__o21ba_1
*CAP
1 *552:B1 0.000122664
2 *551:X 0.000122664
3 *552:B1 *676:A 4.77757e-05
4 *552:B1 *184:12 5.31158e-06
5 s11 *552:B1 0
*RES
1 *551:X *552:B1 9.03 
*END

*D_NET *55 0.000426689
*CONN
*I *555:A1 I *D sky130_fd_sc_hd__a21oi_1
*I *553:Y O *D sky130_fd_sc_hd__nand2_1
*CAP
1 *555:A1 0.00013786
2 *553:Y 0.00013786
3 *555:A1 *553:A 6.27029e-05
4 *555:A1 *81:10 8.8266e-05
*RES
1 *553:Y *555:A1 5.03 
*END

*D_NET *56 0.00130677
*CONN
*I *555:A2 I *D sky130_fd_sc_hd__a21oi_1
*I *556:B1_N I *D sky130_fd_sc_hd__o21ba_1
*I *554:X O *D sky130_fd_sc_hd__or2_1
*CAP
1 *555:A2 8.02471e-05
2 *556:B1_N 0.000167451
3 *554:X 0
4 *56:4 0.000247698
5 *555:A2 *514:B 4.89295e-05
6 *555:A2 *554:B 7.7097e-05
7 *555:A2 *674:A 7.10593e-06
8 *555:A2 *81:10 0.000217066
9 *555:A2 *83:22 2.39856e-05
10 *556:B1_N *514:B 4.89295e-05
11 *556:B1_N *581:D 0
12 *556:B1_N *614:D 0.000162762
13 *556:B1_N *674:A 1.86463e-05
14 *556:B1_N *81:10 8.58181e-05
15 *556:B1_N *200:14 8.41384e-05
16 *556:B1_N *200:29 3.68999e-05
*RES
1 *554:X *56:4 1.6 
2 *56:4 *556:B1_N 9.065 
3 *56:4 *555:A2 4.24 
*END

*D_NET *57 0.00074412
*CONN
*I *557:B1 I *D sky130_fd_sc_hd__a21o_1
*I *556:X O *D sky130_fd_sc_hd__o21ba_1
*CAP
1 *557:B1 0.000241342
2 *556:X 0.000241342
3 *557:B1 *581:D 0.000143266
4 *557:B1 *583:D 4.8854e-05
5 *557:B1 *614:D 0
6 *557:B1 *674:A 6.93163e-05
*RES
1 *556:X *557:B1 11.46 
*END

*D_NET *58 0.000461128
*CONN
*I *559:B1 I *D sky130_fd_sc_hd__a21o_1
*I *558:X O *D sky130_fd_sc_hd__o21ba_1
*CAP
1 *559:B1 7.16832e-05
2 *558:X 7.16832e-05
3 *559:B1 *559:A1 0.000121659
4 *559:B1 *559:A2 8.52972e-05
5 *559:B1 *584:D 4.75959e-05
6 *559:B1 *588:D 6.321e-05
*RES
1 *558:X *559:B1 5.39 
*END

*D_NET *59 0.00195348
*CONN
*I *562:A3 I *D sky130_fd_sc_hd__a31o_1
*I *564:A1 I *D sky130_fd_sc_hd__a21bo_1
*I *561:Y O *D sky130_fd_sc_hd__nand2_1
*CAP
1 *562:A3 6.42954e-05
2 *564:A1 0
3 *561:Y 0.000366113
4 *59:12 0.000430409
5 *562:A3 *531:A1 4.35348e-05
6 *562:A3 *562:B1 1.91597e-05
7 *562:A3 *564:A2 0.000232105
8 *562:A3 *586:D 0.000193801
9 *59:12 *531:B1 0.000267158
10 *59:12 *587:D 0.000106254
11 *59:12 *88:10 0.000116158
12 *59:12 *177:20 0.000114492
*RES
1 *561:Y *59:12 11.225 
2 *59:12 *564:A1 1.6 
3 *59:12 *562:A3 4.12 
*END

*D_NET *60 0.00133251
*CONN
*I *564:A2 I *D sky130_fd_sc_hd__a21bo_1
*I *563:Y O *D sky130_fd_sc_hd__a21oi_1
*CAP
1 *564:A2 0.000201196
2 *563:Y 0.000201196
3 *564:A2 *524:B_N 9.50342e-06
4 *564:A2 *525:A 0.000124007
5 *564:A2 *525:B 2.97573e-05
6 *564:A2 *531:A1 2.85871e-05
7 *564:A2 *562:A2 3.57846e-05
8 *564:A2 *562:B1 0.000137392
9 *564:A2 *563:A1 0.000134509
10 *564:A2 *563:A2 1.08758e-05
11 *564:A2 *564:B1_N 1.91597e-05
12 *564:A2 *586:D 2.0514e-05
13 *564:A2 *632:A 0.000120655
14 *564:A2 *89:10 2.23407e-05
15 *564:A2 *100:6 4.9253e-06
16 *562:A3 *564:A2 0.000232105
*RES
1 *563:Y *564:A2 13.26 
*END

*D_NET *61 0.00216055
*CONN
*I *567:A1 I *D sky130_fd_sc_hd__a21boi_1
*I *566:A2 I *D sky130_fd_sc_hd__a21oi_1
*I *565:Y O *D sky130_fd_sc_hd__nor2_1
*CAP
1 *567:A1 0.000144298
2 *566:A2 0.000117618
3 *565:Y 0.00025045
4 *61:8 0.000512366
5 *566:A2 *588:D 0.000156771
6 *566:A2 *99:14 0.000182405
7 *566:A2 *117:12 8.04551e-05
8 *567:A1 *509:A 5.56629e-05
9 *567:A1 *567:A2 9.50342e-06
10 *567:A1 *99:14 5.20249e-05
11 *567:A1 *117:12 0.000125621
12 *567:A1 *117:48 1.00941e-05
13 *567:A1 *177:20 0
14 *567:A1 *179:26 0.00017127
15 *61:8 *565:A 7.32575e-05
16 *61:8 *99:14 0.000170974
17 *61:8 *99:18 4.77807e-05
*RES
1 *565:Y *61:8 7.845 
2 *61:8 *566:A2 6.975 
3 *61:8 *567:A1 8.295 
*END

*D_NET *62 0.00130644
*CONN
*I *569:A I *D sky130_fd_sc_hd__nand2_1
*I *568:X O *D sky130_fd_sc_hd__or3_1
*CAP
1 *569:A 0.000475396
2 *568:X 0.000475396
3 *569:A *537:B 0
4 *569:A *538:B 0
5 *569:A *565:A 5.69873e-05
6 *569:A *571:A1 1.31901e-05
7 *569:A *99:14 4.90227e-05
8 *569:A *99:18 1.19928e-05
9 *569:A *103:22 5.18317e-06
10 *569:A *186:18 0.000127044
11 *631:A *569:A 9.22308e-05
*RES
1 *568:X *569:A 14.085 
*END

*D_NET *63 0.00154249
*CONN
*I *571:A2 I *D sky130_fd_sc_hd__a21oi_1
*I *570:A2 I *D sky130_fd_sc_hd__o21ai_1
*I *569:Y O *D sky130_fd_sc_hd__nand2_1
*CAP
1 *571:A2 1.9205e-05
2 *570:A2 0.000247131
3 *569:Y 6.17313e-05
4 *63:6 0.000328067
5 *570:A2 *509:A 0.000166992
6 *570:A2 *536:A 8.35106e-05
7 *570:A2 *537:A 0
8 *570:A2 *537:B 2.49909e-05
9 *570:A2 *567:B1_N 4.82919e-05
10 *570:A2 *591:D 0.000114269
11 *570:A2 *103:22 0.000101894
12 *570:A2 *179:26 0.000115837
13 *571:A2 *103:22 5.12969e-06
14 *63:6 *571:A1 0.000131572
15 *63:6 *571:B1 4.60061e-05
16 *63:6 *103:22 4.78678e-05
*RES
1 *569:Y *63:6 3.43 
2 *63:6 *570:A2 11.225 
3 *63:6 *571:A2 1.96 
*END

*D_NET *64 0.000627547
*CONN
*I *575:A1 I *D sky130_fd_sc_hd__o21ai_1
*I *573:A2 I *D sky130_fd_sc_hd__a21oi_1
*I *572:Y O *D sky130_fd_sc_hd__nand2_1
*CAP
1 *575:A1 0.000118889
2 *573:A2 8.96014e-05
3 *572:Y 0
4 *64:4 0.000208491
5 *573:A2 *543:A1 5.83121e-06
6 *573:A2 *572:B 3.6042e-05
7 *573:A2 *573:B1 1.65287e-05
8 *575:A1 *593:D 8.41384e-05
9 *575:A1 *594:D 4.58558e-05
10 *575:A1 *609:D 2.21697e-05
*RES
1 *572:Y *64:4 1.6 
2 *64:4 *573:A2 3.37 
3 *64:4 *575:A1 8.03 
*END

*D_NET *65 0.00187732
*CONN
*I *575:B1 I *D sky130_fd_sc_hd__o21ai_1
*I *574:Y O *D sky130_fd_sc_hd__nand2_1
*CAP
1 *575:B1 0.000619269
2 *574:Y 0.000619269
3 *575:B1 *541:A1 0
4 *575:B1 *541:A2 2.16917e-05
5 *575:B1 *541:B1 6.04252e-05
6 *575:B1 *574:A 0.000121643
7 *575:B1 *574:B 0.000160213
8 *575:B1 *575:A2 0.000194914
9 *575:B1 *576:A1_N 1.86443e-05
10 *575:B1 *576:B1 5.83121e-06
11 *575:B1 *576:B2 2.33865e-05
12 *575:B1 *593:D 5.83121e-06
13 *575:B1 *611:D 1.19206e-05
14 *575:B1 *110:10 0
15 *575:B1 *192:14 1.42807e-05
*RES
1 *574:Y *575:B1 18.09 
*END

*D_NET *66 0.00126137
*CONN
*I *578:B1 I *D sky130_fd_sc_hd__o21a_1
*I *577:X O *D sky130_fd_sc_hd__a2bb2o_4
*CAP
1 *578:B1 0.000377881
2 *577:X 0.000377881
3 *578:B1 *549:A3 0.000162089
4 *578:B1 *549:B1 8.53011e-05
5 *578:B1 *549:B2 4.90291e-05
6 *578:B1 *577:A1_N 2.75145e-05
7 *578:B1 *577:A2_N 2.49909e-05
8 *578:B1 *577:B2 5.13029e-05
9 *578:B1 *578:A2 3.98952e-05
10 *578:B1 *611:D 0
11 *578:B1 *111:22 6.27924e-05
12 *578:B1 *197:16 2.69443e-06
*RES
1 *577:X *578:B1 14.19 
*END

*D_NET *67 0.00168851
*CONN
*I *580:A1 I *D sky130_fd_sc_hd__a21boi_1
*I *579:Y O *D sky130_fd_sc_hd__nand2_1
*CAP
1 *580:A1 0.000489474
2 *579:Y 0.000489474
3 *580:A1 *579:A 1.14192e-05
4 *580:A1 *596:D 0.000455669
5 *580:A1 *680:A 0.000121885
6 *580:A1 *121:118 6.3431e-05
7 *580:A1 *121:127 5.71589e-05
*RES
1 *579:Y *580:A1 11.36 
*END

*D_NET *68 0.00218229
*CONN
*I *573:B1 I *D sky130_fd_sc_hd__a21oi_1
*I *512:A1 I *D sky130_fd_sc_hd__o221a_1
*I *507:A I *D sky130_fd_sc_hd__or4_4
*I *501:Y O *D sky130_fd_sc_hd__nor2_1
*CAP
1 *573:B1 0.000178096
2 *512:A1 0
3 *507:A 0
4 *501:Y 0.000266922
5 *68:27 0.000402913
6 *68:10 0.000491738
7 *573:B1 *572:B 2.00026e-05
8 *573:B1 *573:A1 5.46982e-05
9 *573:B1 *592:D 3.55642e-06
10 *573:B1 *105:10 0.000116158
11 *68:10 *502:B 3.86529e-05
12 *68:10 *506:B 6.02202e-05
13 *68:10 *611:CLK 4.18603e-06
14 *68:10 *187:10 4.13171e-05
15 *68:10 *192:14 0
16 *68:27 *507:B 0.000154699