*SPEF "ieee 1481-1999"
*DESIGN "adder"
*DATE "04:44:04 Monday April 21, 2025"
*VENDOR "The OpenROAD Project"
*PROGRAM "OpenROAD"
*VERSION "b16bda7e82721d10566ff7e2b68f1ff0be9f9e38"
*DESIGN_FLOW "NAME_SCOPE LOCAL" "PIN_CAP NONE"
*DIVIDER /
*DELIMITER :
*BUS_DELIMITER []
*T_UNIT 1 NS
*C_UNIT 1 PF
*R_UNIT 1 OHM
*L_UNIT 1 HENRY

*NAME_MAP
*3 a1
*4 a10
*5 a11
*6 a12
*7 a13
*8 a14
*9 a15
*10 a16
*11 a2
*12 a3
*13 a4
*14 a5
*15 a6
*16 a7
*17 a8
*18 a9
*19 b1
*20 b10
*21 b11
*22 b12
*23 b13
*24 b14
*25 b15
*26 b16
*27 b2
*28 b3
*29 b4
*30 b5
*31 b6
*32 b7
*33 b8
*34 b9
*35 cin
*36 clk
*37 cout
*38 s1
*39 s10
*40 s11
*41 s12
*42 s13
*43 s14
*44 s15
*45 s16
*46 s2
*47 s3
*48 s4
*49 s5
*50 s6
*51 s7
*52 s8
*53 s9
*54 _000_
*55 _001_
*56 _002_
*57 _003_
*58 _004_
*59 _005_
*60 _006_
*61 _007_
*62 _008_
*63 _009_
*64 _010_
*65 _011_
*66 _012_
*67 _013_
*68 _014_
*69 _015_
*70 _016_
*71 _017_
*72 _018_
*73 _019_
*74 _020_
*75 _021_
*76 _022_
*77 _023_
*78 _024_
*79 _025_
*80 _026_
*81 _027_
*82 _028_
*83 _029_
*84 _030_
*85 _031_
*86 _032_
*87 _033_
*88 _034_
*89 _035_
*90 _036_
*91 _037_
*92 _038_
*93 _039_
*94 _040_
*95 _041_
*96 _042_
*97 _043_
*98 _044_
*99 _045_
*100 _046_
*101 _047_
*102 _048_
*103 _049_
*104 _050_
*105 _051_
*106 _052_
*107 _053_
*108 _054_
*109 _055_
*110 _056_
*111 _057_
*112 _058_
*113 _059_
*114 clknet_0_clk
*115 clknet_2_0__leaf_clk
*116 clknet_2_1__leaf_clk
*117 clknet_2_2__leaf_clk
*118 clknet_2_3__leaf_clk
*119 net1
*120 net10
*121 net11
*122 net12
*123 net13
*124 net14
*125 net15
*126 net16
*127 net17
*128 net18
*129 net19
*130 net2
*131 net20
*132 net21
*133 net22
*134 net23
*135 net24
*136 net25
*137 net26
*138 net27
*139 net28
*140 net29
*141 net3
*142 net30
*143 net31
*144 net32
*145 net33
*146 net34
*147 net35
*148 net36
*149 net37
*150 net38
*151 net39
*152 net4
*153 net40
*154 net41
*155 net42
*156 net43
*157 net44
*158 net45
*159 net46
*160 net47
*161 net48
*162 net49
*163 net5
*164 net50
*165 net51
*166 net52
*167 net53
*168 net6
*169 net7
*170 net8
*171 net9
*172 x1\.a
*173 x1\.b
*174 x1\.cin
*175 x1\.sum
*176 x11\.a
*177 x11\.b
*178 x11\.sum
*179 x12\.a
*180 x12\.b
*181 x12\.sum
*182 x13\.a
*183 x13\.b
*184 x13\.sum
*185 x14\.a
*186 x14\.b
*187 x14\.sum
*188 x16\.a
*189 x16\.b
*190 x16\.sum
*191 x17\.a
*192 x17\.b
*193 x17\.sum
*194 x18\.a
*195 x18\.b
*196 x18\.sum
*197 x19\.a
*198 x19\.b
*199 x19\.sum
*200 x2\.a
*201 x2\.b
*202 x2\.sum
*203 x20\.out
*204 x23\.A
*205 x23\.B
*206 x24\.A
*207 x24\.B
*208 x25\.A
*209 x25\.B
*210 x26\.A
*211 x26\.B
*212 x27\.A
*213 x27\.B
*214 x28\.A
*215 x28\.B
*216 x3\.sum
*217 x4\.sum
*218 x6\.sum
*219 x7\.sum
*220 x8\.sum
*221 x9\.sum
*222 FILLER_0_0_104
*223 FILLER_0_0_108
*224 FILLER_0_0_113
*225 FILLER_0_0_118
*226 FILLER_0_0_124
*227 FILLER_0_0_128
*228 FILLER_0_0_18
*229 FILLER_0_0_24
*230 FILLER_0_0_29
*231 FILLER_0_0_38
*232 FILLER_0_0_44
*233 FILLER_0_0_48
*234 FILLER_0_0_60
*235 FILLER_0_0_64
*236 FILLER_0_0_68
*237 FILLER_0_0_74
*238 FILLER_0_0_78
*239 FILLER_0_0_88
*240 FILLER_0_0_94
*241 FILLER_0_0_98
*242 FILLER_0_10_111
*243 FILLER_0_10_123
*244 FILLER_0_10_135
*245 FILLER_0_10_26
*246 FILLER_0_10_29
*247 FILLER_0_10_37
*248 FILLER_0_10_50
*249 FILLER_0_10_6
*250 FILLER_0_10_62
*251 FILLER_0_10_83
*252 FILLER_0_10_99
*253 FILLER_0_11_107
*254 FILLER_0_11_28
*255 FILLER_0_11_3
*256 FILLER_0_11_39
*257 FILLER_0_11_51
*258 FILLER_0_11_55
*259 FILLER_0_11_73
*260 FILLER_0_11_94
*261 FILLER_0_12_12
*262 FILLER_0_12_134
*263 FILLER_0_12_29
*264 FILLER_0_12_48
*265 FILLER_0_12_6
*266 FILLER_0_12_60
*267 FILLER_0_12_85
*268 FILLER_0_13_110
*269 FILLER_0_13_19
*270 FILLER_0_13_31
*271 FILLER_0_13_43
*272 FILLER_0_13_55
*273 FILLER_0_13_6
*274 FILLER_0_13_73
*275 FILLER_0_14_11
*276 FILLER_0_14_122
*277 FILLER_0_14_131
*278 FILLER_0_14_135
*279 FILLER_0_14_3
*280 FILLER_0_14_32
*281 FILLER_0_14_44
*282 FILLER_0_14_63
*283 FILLER_0_14_75
*284 FILLER_0_14_85
*285 FILLER_0_14_95
*286 FILLER_0_15_101
*287 FILLER_0_15_109
*288 FILLER_0_15_120
*289 FILLER_0_15_132
*290 FILLER_0_15_17
*291 FILLER_0_15_28
*292 FILLER_0_15_52
*293 FILLER_0_15_73
*294 FILLER_0_15_85
*295 FILLER_0_15_9
*296 FILLER_0_16_109
*297 FILLER_0_16_121
*298 FILLER_0_16_133
*299 FILLER_0_16_21
*300 FILLER_0_16_27
*301 FILLER_0_16_29
*302 FILLER_0_16_3
*303 FILLER_0_16_41
*304 FILLER_0_16_53
*305 FILLER_0_16_65
*306 FILLER_0_16_85
*307 FILLER_0_16_97
*308 FILLER_0_17_105
*309 FILLER_0_17_111
*310 FILLER_0_17_113
*311 FILLER_0_17_129
*312 FILLER_0_17_135
*313 FILLER_0_17_18
*314 FILLER_0_17_30
*315 FILLER_0_17_57
*316 FILLER_0_17_6
*317 FILLER_0_17_69
*318 FILLER_0_17_81
*319 FILLER_0_17_93
*320 FILLER_0_18_101
*321 FILLER_0_18_134
*322 FILLER_0_18_20
*323 FILLER_0_18_3
*324 FILLER_0_18_45
*325 FILLER_0_18_57
*326 FILLER_0_18_69
*327 FILLER_0_18_81
*328 FILLER_0_19_113
*329 FILLER_0_19_117
*330 FILLER_0_19_134
*331 FILLER_0_19_29
*332 FILLER_0_19_37
*333 FILLER_0_19_57
*334 FILLER_0_19_79
*335 FILLER_0_19_89
*336 FILLER_0_19_9
*337 FILLER_0_19_97
*338 FILLER_0_1_103
*339 FILLER_0_1_111
*340 FILLER_0_1_113
*341 FILLER_0_1_117
*342 FILLER_0_1_134
*343 FILLER_0_1_20
*344 FILLER_0_1_3
*345 FILLER_0_1_48
*346 FILLER_0_1_57
*347 FILLER_0_1_69
*348 FILLER_0_1_91
*349 FILLER_0_20_11
*350 FILLER_0_20_29
*351 FILLER_0_20_3
*352 FILLER_0_20_35
*353 FILLER_0_21_105
*354 FILLER_0_21_111
*355 FILLER_0_21_113
*356 FILLER_0_21_125
*357 FILLER_0_21_133
*358 FILLER_0_21_23
*359 FILLER_0_21_29
*360 FILLER_0_21_46
*361 FILLER_0_21_54
*362 FILLER_0_21_57
*363 FILLER_0_21_6
*364 FILLER_0_21_69
*365 FILLER_0_21_73
*366 FILLER_0_21_93
*367 FILLER_0_22_104
*368 FILLER_0_22_108
*369 FILLER_0_22_113
*370 FILLER_0_22_118
*371 FILLER_0_22_124
*372 FILLER_0_22_128
*373 FILLER_0_22_23
*374 FILLER_0_22_3
*375 FILLER_0_22_32
*376 FILLER_0_22_38
*377 FILLER_0_22_44
*378 FILLER_0_22_48
*379 FILLER_0_22_60
*380 FILLER_0_22_64
*381 FILLER_0_22_68
*382 FILLER_0_22_74
*383 FILLER_0_22_78
*384 FILLER_0_22_88
*385 FILLER_0_22_94
*386 FILLER_0_22_98
*387 FILLER_0_2_134
*388 FILLER_0_2_29
*389 FILLER_0_2_3
*390 FILLER_0_2_35
*391 FILLER_0_2_85
*392 FILLER_0_3_107
*393 FILLER_0_3_111
*394 FILLER_0_3_113
*395 FILLER_0_3_117
*396 FILLER_0_3_134
*397 FILLER_0_3_3
*398 FILLER_0_3_39
*399 FILLER_0_3_51
*400 FILLER_0_3_55
*401 FILLER_0_3_57
*402 FILLER_0_3_65
*403 FILLER_0_3_83
*404 FILLER_0_3_95
*405 FILLER_0_4_109
*406 FILLER_0_4_121
*407 FILLER_0_4_133
*408 FILLER_0_4_23
*409 FILLER_0_4_27
*410 FILLER_0_4_45
*411 FILLER_0_4_57
*412 FILLER_0_4_6
*413 FILLER_0_4_69
*414 FILLER_0_4_81
*415 FILLER_0_4_85
*416 FILLER_0_4_97
*417 FILLER_0_5_102
*418 FILLER_0_5_110
*419 FILLER_0_5_113
*420 FILLER_0_5_125
*421 FILLER_0_5_133
*422 FILLER_0_5_24
*423 FILLER_0_5_36
*424 FILLER_0_5_53
*425 FILLER_0_5_6
*426 FILLER_0_5_64
*427 FILLER_0_5_90
*428 FILLER_0_6_108
*429 FILLER_0_6_120
*430 FILLER_0_6_132
*431 FILLER_0_6_27
*432 FILLER_0_6_29
*433 FILLER_0_6_3
*434 FILLER_0_6_35
*435 FILLER_0_6_79
*436 FILLER_0_6_83
*437 FILLER_0_7_129
*438 FILLER_0_7_135
*439 FILLER_0_7_18
*440 FILLER_0_7_30
*441 FILLER_0_7_46
*442 FILLER_0_7_54
*443 FILLER_0_7_6
*444 FILLER_0_7_63
*445 FILLER_0_7_91
*446 FILLER_0_8_106
*447 FILLER_0_8_118
*448 FILLER_0_8_130
*449 FILLER_0_8_14
*450 FILLER_0_8_26
*451 FILLER_0_8_29
*452 FILLER_0_8_3
*453 FILLER_0_8_54
*454 FILLER_0_8_66
*455 FILLER_0_8_78
*456 FILLER_0_8_85
*457 FILLER_0_8_89
*458 FILLER_0_9_105
*459 FILLER_0_9_111
*460 FILLER_0_9_113
*461 FILLER_0_9_125
*462 FILLER_0_9_133
*463 FILLER_0_9_18
*464 FILLER_0_9_30
*465 FILLER_0_9_45
*466 FILLER_0_9_53
*467 FILLER_0_9_57
*468 FILLER_0_9_6
*469 FILLER_0_9_69
*470 FILLER_0_9_81
*471 FILLER_0_9_93
*472 PHY_EDGE_ROW_0_Left_23
*473 PHY_EDGE_ROW_0_Right_0
*474 PHY_EDGE_ROW_10_Left_33
*475 PHY_EDGE_ROW_10_Right_10
*476 PHY_EDGE_ROW_11_Left_34
*477 PHY_EDGE_ROW_11_Right_11
*478 PHY_EDGE_ROW_12_Left_35
*479 PHY_EDGE_ROW_12_Right_12
*480 PHY_EDGE_ROW_13_Left_36
*481 PHY_EDGE_ROW_13_Right_13
*482 PHY_EDGE_ROW_14_Left_37
*483 PHY_EDGE_ROW_14_Right_14
*484 PHY_EDGE_ROW_15_Left_38
*485 PHY_EDGE_ROW_15_Right_15
*486 PHY_EDGE_ROW_16_Left_39
*487 PHY_EDGE_ROW_16_Right_16
*488 PHY_EDGE_ROW_17_Left_40
*489 PHY_EDGE_ROW_17_Right_17
*490 PHY_EDGE_ROW_18_Left_41
*491 PHY_EDGE_ROW_18_Right_18
*492 PHY_EDGE_ROW_19_Left_42
*493 PHY_EDGE_ROW_19_Right_19
*494 PHY_EDGE_ROW_1_Left_24
*495 PHY_EDGE_ROW_1_Right_1
*496 PHY_EDGE_ROW_20_Left_43
*497 PHY_EDGE_ROW_20_Right_20
*498 PHY_EDGE_ROW_21_Left_44
*499 PHY_EDGE_ROW_21_Right_21
*500 PHY_EDGE_ROW_22_Left_45
*501 PHY_EDGE_ROW_22_Right_22
*502 PHY_EDGE_ROW_2_Left_25
*503 PHY_EDGE_ROW_2_Right_2
*504 PHY_EDGE_ROW_3_Left_26
*505 PHY_EDGE_ROW_3_Right_3
*506 PHY_EDGE_ROW_4_Left_27
*507 PHY_EDGE_ROW_4_Right_4
*508 PHY_EDGE_ROW_5_Left_28
*509 PHY_EDGE_ROW_5_Right_5
*510 PHY_EDGE_ROW_6_Left_29
*511 PHY_EDGE_ROW_6_Right_6
*512 PHY_EDGE_ROW_7_Left_30
*513 PHY_EDGE_ROW_7_Right_7
*514 PHY_EDGE_ROW_8_Left_31
*515 PHY_EDGE_ROW_8_Right_8
*516 PHY_EDGE_ROW_9_Left_32
*517 PHY_EDGE_ROW_9_Right_9
*518 TAP_TAPCELL_ROW_0_46
*519 TAP_TAPCELL_ROW_0_47
*520 TAP_TAPCELL_ROW_0_48
*521 TAP_TAPCELL_ROW_0_49
*522 TAP_TAPCELL_ROW_10_68
*523 TAP_TAPCELL_ROW_10_69
*524 TAP_TAPCELL_ROW_11_70
*525 TAP_TAPCELL_ROW_11_71
*526 TAP_TAPCELL_ROW_12_72
*527 TAP_TAPCELL_ROW_12_73
*528 TAP_TAPCELL_ROW_13_74
*529 TAP_TAPCELL_ROW_13_75
*530 TAP_TAPCELL_ROW_14_76
*531 TAP_TAPCELL_ROW_14_77
*532 TAP_TAPCELL_ROW_15_78
*533 TAP_TAPCELL_ROW_15_79
*534 TAP_TAPCELL_ROW_16_80
*535 TAP_TAPCELL_ROW_16_81
*536 TAP_TAPCELL_ROW_17_82
*537 TAP_TAPCELL_ROW_17_83
*538 TAP_TAPCELL_ROW_18_84
*539 TAP_TAPCELL_ROW_18_85
*540 TAP_TAPCELL_ROW_19_86
*541 TAP_TAPCELL_ROW_19_87
*542 TAP_TAPCELL_ROW_1_50
*543 TAP_TAPCELL_ROW_1_51
*544 TAP_TAPCELL_ROW_20_88
*545 TAP_TAPCELL_ROW_20_89
*546 TAP_TAPCELL_ROW_21_90
*547 TAP_TAPCELL_ROW_21_91
*548 TAP_TAPCELL_ROW_22_92
*549 TAP_TAPCELL_ROW_22_93
*550 TAP_TAPCELL_ROW_22_94
*551 TAP_TAPCELL_ROW_22_95
*552 TAP_TAPCELL_ROW_2_52
*553 TAP_TAPCELL_ROW_2_53
*554 TAP_TAPCELL_ROW_3_54
*555 TAP_TAPCELL_ROW_3_55
*556 TAP_TAPCELL_ROW_4_56
*557 TAP_TAPCELL_ROW_4_57
*558 TAP_TAPCELL_ROW_5_58
*559 TAP_TAPCELL_ROW_5_59
*560 TAP_TAPCELL_ROW_6_60
*561 TAP_TAPCELL_ROW_6_61
*562 TAP_TAPCELL_ROW_7_62
*563 TAP_TAPCELL_ROW_7_63
*564 TAP_TAPCELL_ROW_8_64
*565 TAP_TAPCELL_ROW_8_65
*566 TAP_TAPCELL_ROW_9_66
*567 TAP_TAPCELL_ROW_9_67
*568 _060_
*569 _061_
*570 _062_
*571 _063_
*572 _064_
*573 _065_
*574 _066_
*575 _067_
*576 _068_
*577 _069_
*578 _070_
*579 _071_
*580 _072_
*581 _073_
*582 _074_
*583 _075_
*584 _076_
*585 _077_
*586 _078_
*587 _079_
*588 _080_
*589 _081_
*590 _082_
*591 _083_
*592 _084_
*593 _085_
*594 _086_
*595 _087_
*596 _088_
*597 _089_
*598 _090_
*599 _091_
*600 _092_
*601 _093_
*602 _094_
*603 _095_
*604 _096_
*605 _097_
*606 _098_
*607 _099_
*608 _100_
*609 _101_
*610 _102_
*611 _103_
*612 _104_
*613 _105_
*614 _106_
*615 _107_
*616 _108_
*617 _109_
*618 _110_
*619 _111_
*620 _112_
*621 _113_
*622 _114_
*623 _115_
*624 _116_
*625 _117_
*626 _118_
*627 _119_
*628 _120_
*629 _121_
*630 _122_
*631 _123_
*632 _124_
*633 _125_
*634 _126_
*635 _127_
*636 _128_
*637 _129_
*638 _130_
*639 _131_
*640 _132_
*641 _133_
*642 _134_
*643 _135_
*644 _136_
*645 _137_
*646 _138_
*647 _139_
*648 _140_
*649 _141_
*650 _142_
*651 _143_
*652 _144_
*653 _145_
*654 _146_
*655 _147_
*656 _148_
*657 _149_
*658 _150_
*659 _151_
*660 _152_
*661 _153_
*662 _154_
*663 _155_
*664 _156_
*665 _157_
*666 _158_
*667 _159_
*668 _160_
*669 _161_
*670 _162_
*671 _163_
*672 _164_
*673 _165_
*674 _166_
*675 _167_
*676 _168_
*677 _169_
*678 _170_
*679 _171_
*680 _172_
*681 _173_
*682 _174_
*683 _175_
*684 _176_
*685 _177_
*686 _178_
*687 _179_
*688 _180_
*689 _181_
*690 _182_
*691 _183_
*692 _184_
*693 _185_
*694 _186_
*695 clkbuf_0_clk
*696 clkbuf_2_0__f_clk
*697 clkbuf_2_1__f_clk
*698 clkbuf_2_2__f_clk
*699 clkbuf_2_3__f_clk
*700 clkload0
*701 clkload1
*702 clkload2
*703 input1
*704 input10
*705 input11
*706 input12
*707 input13
*708 input14
*709 input15
*710 input16
*711 input17
*712 input18
*713 input19
*714 input2
*715 input20
*716 input21
*717 input22
*718 input23
*719 input24
*720 input25
*721 input26
*722 input27
*723 input28
*724 input29
*725 input3
*726 input30
*727 input31
*728 input32
*729 input33
*730 input4
*731 input5
*732 input6
*733 input7
*734 input8
*735 input9
*736 output34
*737 output35
*738 output36
*739 output37
*740 output38
*741 output39
*742 output40
*743 output41
*744 output42
*745 output43
*746 output44
*747 output45
*748 output46
*749 output47
*750 output48
*751 output49
*752 output50
*753 rebuffer1
*754 rebuffer2
*755 rebuffer3

*PORTS
a1 I
a10 I
a11 I
a12 I
a13 I
a14 I
a15 I
a16 I
a2 I
a3 I
a4 I
a5 I
a6 I
a7 I
a8 I
a9 I
b1 I
b10 I
b11 I
b12 I
b13 I
b14 I
b15 I
b16 I
b2 I
b3 I
b4 I
b5 I
b6 I
b7 I
b8 I
b9 I
cin I
clk I
cout O
s1 O
s10 O
s11 O
s12 O
s13 O
s14 O
s15 O
s16 O
s2 O
s3 O
s4 O
s5 O
s6 O
s7 O
s8 O
s9 O

*D_NET *3 0.00228882
*CONN
*P a1 I
*I *703:A I *D sky130_fd_sc_hd__clkbuf_1
*CAP
1 a1 0.00111691
2 *703:A 0.00111691
3 *703:A s15 0
4 *703:A *735:A 5.50052e-05
*RES
1 a1 *703:A 35.1036 
*END

*D_NET *4 0.00115396
*CONN
*P a10 I
*I *714:A I *D sky130_fd_sc_hd__clkbuf_1
*CAP
1 a10 0.000562774
2 *714:A 0.000562774
3 *714:A *663:D 2.84109e-05
4 *714:A *710:A 0
*RES
1 a10 *714:A 24.7821 
*END

*D_NET *5 0.0010247
*CONN
*P a11 I
*I *725:A I *D sky130_fd_sc_hd__clkbuf_1
*CAP
1 a11 0.000512352
2 *725:A 0.000512352
*RES
1 a11 *725:A 23.9607 
*END

*D_NET *6 0.0011033
*CONN
*P a12 I
*I *730:A I *D sky130_fd_sc_hd__clkbuf_1
*CAP
1 a12 0.000539545
2 *730:A 0.000539545
3 *730:A *675:D 2.42082e-05
4 *730:A *731:A 0
*RES
1 a12 *730:A 24.7821 
*END

*D_NET *7 0.00103102
*CONN
*P a13 I
*I *731:A I *D sky130_fd_sc_hd__clkbuf_1
*CAP
1 a13 0.000515509
2 *731:A 0.000515509
3 *731:A *675:D 0
4 *731:A *732:A 0
5 *730:A *731:A 0
*RES
1 a13 *731:A 23.9607 
*END

*D_NET *8 0.00103289
*CONN
*P a14 I
*I *732:A I *D sky130_fd_sc_hd__clkbuf_1
*CAP
1 a14 0.000516447
2 *732:A 0.000516447
3 *732:A *733:A 0
4 *731:A *732:A 0
*RES
1 a14 *732:A 23.9607 
*END

*D_NET *9 0.00103289
*CONN
*P a15 I
*I *733:A I *D sky130_fd_sc_hd__clkbuf_1
*CAP
1 a15 0.000516447
2 *733:A 0.000516447
3 *733:A *734:A 0
4 *732:A *733:A 0
*RES
1 a15 *733:A 23.9607 
*END

*D_NET *10 0.00157135
*CONN
*P a16 I
*I *734:A I *D sky130_fd_sc_hd__clkbuf_1
*CAP
1 a16 0.000776431
2 *734:A 0.000776431
3 *734:A *673:D 1.84865e-05
4 *733:A *734:A 0
*RES
1 a16 *734:A 28.6036 
*END

*D_NET *11 0.00172533
*CONN
*P a2 I
*I *735:A I *D sky130_fd_sc_hd__clkbuf_1
*CAP
1 a2 0.000688454
2 *735:A 0.000688454
3 *735:A s15 0.000113585
4 *735:A s16 0.000167279
5 *735:A *647:D 1.25579e-05
6 *735:A *704:A 0
7 *703:A *735:A 5.50052e-05
*RES
1 a2 *735:A 28.8179 
*END

*D_NET *12 0.00171985
*CONN
*P a3 I
*I *704:A I *D sky130_fd_sc_hd__clkbuf_1
*CAP
1 a3 0.000731705
2 *704:A 0.000731705
3 *704:A *647:CLK 0.000226867
4 *704:A *200:18 2.95726e-05
5 *735:A *704:A 0
*RES
1 a3 *704:A 27.5679 
*END

*D_NET *13 0.0010446
*CONN
*P a4 I
*I *705:A I *D sky130_fd_sc_hd__clkbuf_1
*CAP
1 a4 0.000522302
2 *705:A 0.000522302
3 *705:A cout 0
4 *705:A *200:18 0
*RES
1 a4 *705:A 23.9607 
*END

*D_NET *14 0.00110533
*CONN
*P a5 I
*I *706:A I *D sky130_fd_sc_hd__clkbuf_1
*CAP
1 a5 0.000552667
2 *706:A 0.000552667
3 *706:A cout 0
4 *706:A *707:A 0
5 *706:A *736:A 0
*RES
1 a5 *706:A 24.7821 
*END

*D_NET *15 0.00110043
*CONN
*P a6 I
*I *707:A I *D sky130_fd_sc_hd__clkbuf_1
*CAP
1 a6 0.000550213
2 *707:A 0.000550213
3 *707:A *708:A 0
4 *706:A *707:A 0
*RES
1 a6 *707:A 24.7821 
*END

*D_NET *16 0.00127325
*CONN
*P a7 I
*I *708:A I *D sky130_fd_sc_hd__clkbuf_1
*CAP
1 a7 0.000610807
2 *708:A 0.000610807
3 *708:A *657:D 5.16342e-05
4 *707:A *708:A 0
*RES
1 a7 *708:A 25.6036 
*END

*D_NET *17 0.00102004
*CONN
*P a8 I
*I *709:A I *D sky130_fd_sc_hd__clkbuf_1
*CAP
1 a8 0.000510022
2 *709:A 0.000510022
*RES
1 a8 *709:A 23.9607 
*END

*D_NET *18 0.00110043
*CONN
*P a9 I
*I *710:A I *D sky130_fd_sc_hd__clkbuf_1
*CAP
1 a9 0.000550213
2 *710:A 0.000550213
3 *714:A *710:A 0
*RES
1 a9 *710:A 24.7821 
*END

*D_NET *19 0.00172495
*CONN
*P b1 I
*I *711:A I *D sky130_fd_sc_hd__clkbuf_1
*CAP
1 b1 0.000728128
2 *711:A 0.000728128
3 *711:A s1 0.000151619
4 *711:A *646:D 5.62995e-05
5 *711:A *650:D 7.43578e-06
6 *711:A *720:A 5.33433e-05
*RES
1 b1 *711:A 29.1393 
*END

*D_NET *20 0.000946543
*CONN
*P b10 I
*I *712:A I *D sky130_fd_sc_hd__clkbuf_1
*CAP
1 b10 0.000464114
2 *712:A 0.000464114
3 *712:A *664:D 1.83136e-05
4 *712:A *713:A 0
5 *712:A *728:A 0
*RES
1 b10 *712:A 22.6571 
*END

*D_NET *21 0.000943089
*CONN
*P b11 I
*I *713:A I *D sky130_fd_sc_hd__clkbuf_1
*CAP
1 b11 0.000471545
2 *713:A 0.000471545
3 *713:A *715:A 0
4 *712:A *713:A 0
*RES
1 b11 *713:A 22.9071 
*END

*D_NET *22 0.000941071
*CONN
*P b12 I
*I *715:A I *D sky130_fd_sc_hd__clkbuf_1
*CAP
1 b12 0.000470535
2 *715:A 0.000470535
3 *715:A *716:A 0
4 *713:A *715:A 0
*RES
1 b12 *715:A 22.6571 
*END

*D_NET *23 0.00084331
*CONN
*P b13 I
*I *716:A I *D sky130_fd_sc_hd__clkbuf_1
*CAP
1 b13 0.000421655
2 *716:A 0.000421655
3 *716:A *717:A 0
4 *715:A *716:A 0
*RES
1 b13 *716:A 21.8357 
*END

*D_NET *24 0.00084331
*CONN
*P b14 I
*I *717:A I *D sky130_fd_sc_hd__clkbuf_1
*CAP
1 b14 0.000421655
2 *717:A 0.000421655
3 *717:A *718:A 0
4 *716:A *717:A 0
*RES
1 b14 *717:A 21.8357 
*END

*D_NET *25 0.000900181
*CONN
*P b15 I
*I *718:A I *D sky130_fd_sc_hd__clkbuf_1
*CAP
1 b15 0.00042063
2 *718:A 0.00042063
3 *718:A *674:D 3.69047e-06
4 *718:A *719:A 5.52302e-05
5 *717:A *718:A 0
*RES
1 b15 *718:A 21.8357 
*END

*D_NET *26 0.00142998
*CONN
*P b16 I
*I *719:A I *D sky130_fd_sc_hd__clkbuf_1
*CAP
1 b16 0.0006796
2 *719:A 0.0006796
3 *719:A *674:D 1.15172e-05
4 *719:A *676:D 4.0342e-06
5 *718:A *719:A 5.52302e-05
*RES
1 b16 *719:A 26.4786 
*END

*D_NET *27 0.000993804
*CONN
*P b2 I
*I *720:A I *D sky130_fd_sc_hd__clkbuf_1
*CAP
1 b2 0.000420709
2 *720:A 0.000420709
3 *720:A s1 9.90431e-05
4 *720:A *721:A 0
5 *711:A *720:A 5.33433e-05
*RES
1 b2 *720:A 22.3714 
*END

*D_NET *28 0.000953894
*CONN
*P b3 I
*I *721:A I *D sky130_fd_sc_hd__clkbuf_1
*CAP
1 b3 0.000470085
2 *721:A 0.000470085
3 *721:A *650:D 3.69047e-06
4 *721:A *722:A 0
5 *721:A *737:A 1.00332e-05
6 *720:A *721:A 0
*RES
1 b3 *721:A 22.9071 
*END

*D_NET *29 0.00106994
*CONN
*P b4 I
*I *722:A I *D sky130_fd_sc_hd__clkbuf_1
*CAP
1 b4 0.000534971
2 *722:A 0.000534971
3 *722:A *723:A 0
4 *721:A *722:A 0
*RES
1 b4 *722:A 25.1929 
*END

*D_NET *30 0.000943094
*CONN
*P b5 I
*I *723:A I *D sky130_fd_sc_hd__clkbuf_1
*CAP
1 b5 0.000471547
2 *723:A 0.000471547
3 *723:A *724:A 0
4 *722:A *723:A 0
*RES
1 b5 *723:A 22.6571 
*END

*D_NET *31 0.000941071
*CONN
*P b6 I
*I *724:A I *D sky130_fd_sc_hd__clkbuf_1
*CAP
1 b6 0.000470535
2 *724:A 0.000470535
3 *724:A *726:A 0
4 *723:A *724:A 0
*RES
1 b6 *724:A 22.6571 
*END

*D_NET *32 0.00106637
*CONN
*P b7 I
*I *726:A I *D sky130_fd_sc_hd__clkbuf_1
*CAP
1 b7 0.000514336
2 *726:A 0.000514336
3 *726:A *658:D 3.77021e-05
4 *726:A *727:A 0
5 *724:A *726:A 0
*RES
1 b7 *726:A 23.4786 
*END

*D_NET *33 0.00084331
*CONN
*P b8 I
*I *727:A I *D sky130_fd_sc_hd__clkbuf_1
*CAP
1 b8 0.000421655
2 *727:A 0.000421655
3 *727:A *728:A 0
4 *726:A *727:A 0
*RES
1 b8 *727:A 21.8357 
*END

*D_NET *34 0.000941071
*CONN
*P b9 I
*I *728:A I *D sky130_fd_sc_hd__clkbuf_1
*CAP
1 b9 0.000470535
2 *728:A 0.000470535
3 *712:A *728:A 0
4 *727:A *728:A 0
*RES
1 b9 *728:A 22.6571 
*END

*D_NET *35 0.000861504
*CONN
*P cin I
*I *729:A I *D sky130_fd_sc_hd__buf_1
*CAP
1 cin 0.000386051
2 *729:A 0.000386051
3 *729:A *673:CLK 8.9402e-05
*RES
1 cin *729:A 21.2306 
*END

*D_NET *36 0.00817737
*CONN
*P clk I
*I *695:A I *D sky130_fd_sc_hd__clkbuf_16
*CAP
1 clk 0.00386769
2 *695:A 0.00386769
3 *695:A *607:B 0
4 *695:A *686:D 6.64099e-05
5 *695:A *699:A 2.8751e-05
6 *695:A *98:10 2.09826e-05
7 *695:A *100:10 0.00010326
8 *695:A *114:33 5.06736e-05
9 *695:A *176:10 2.28159e-05
10 *695:A *183:18 0
11 *695:A *192:18 0.000149087
*RES
1 clk *695:A 34.2839 
*END

*D_NET *37 0.0020193
*CONN
*P cout O
*I *736:X O *D sky130_fd_sc_hd__buf_1
*CAP
1 cout 0.00100965
2 *736:X 0.00100965
3 cout s16 0
4 *705:A cout 0
5 *706:A cout 0
*RES
1 *736:X cout 21.818 
*END

*D_NET *38 0.00142161
*CONN
*P s1 O
*I *737:X O *D sky130_fd_sc_hd__buf_1
*CAP
1 s1 0.000582874
2 *737:X 0.000582874
3 s1 s2 0
4 s1 *650:D 5.19842e-06
5 *711:A s1 0.000151619
6 *720:A s1 9.90431e-05
*RES
1 *737:X s1 24.1745 
*END

*D_NET *39 0.000697803
*CONN
*P s10 O
*I *738:X O *D sky130_fd_sc_hd__buf_1
*CAP
1 s10 0.000343584
2 *738:X 0.000343584
3 s10 s11 5.31679e-06
4 s10 s9 5.31679e-06
*RES
1 *738:X s10 20.7838 
*END

*D_NET *40 0.000950322
*CONN
*P s11 O
*I *739:X O *D sky130_fd_sc_hd__buf_1
*CAP
1 s11 0.000435734
2 *739:X 0.000435734
3 s11 s12 1.68403e-05
4 s11 *740:A 5.66971e-05
5 s10 s11 5.31679e-06
*RES
1 *739:X s11 22.3196 
*END

*D_NET *41 0.00059474
*CONN
*P s12 O
*I *740:X O *D sky130_fd_sc_hd__buf_1
*CAP
1 s12 0.000283354
2 *740:X 0.000283354
3 s12 s13 1.1192e-05
4 s12 *204:12 0
5 s11 s12 1.68403e-05
*RES
1 *740:X s12 19.1936 
*END

*D_NET *42 0.000588805
*CONN
*P s13 O
*I *741:X O *D sky130_fd_sc_hd__buf_1
*CAP
1 s13 0.000288807
2 *741:X 0.000288807
3 s13 s14 0
4 s12 s13 1.1192e-05
*RES
1 *741:X s13 20.4803 
*END

*D_NET *43 0.000694064
*CONN
*P s14 O
*I *742:X O *D sky130_fd_sc_hd__buf_1
*CAP
1 s14 0.000342726
2 *742:X 0.000342726
3 s14 s15 8.6123e-06
4 s13 s14 0
*RES
1 *742:X s14 20.7838 
*END

*D_NET *44 0.000734543
*CONN
*P s15 O
*I *743:X O *D sky130_fd_sc_hd__buf_1
*CAP
1 s15 0.000306173
2 *743:X 0.000306173
3 s15 s16 0
4 s14 s15 8.6123e-06
5 *703:A s15 0
6 *735:A s15 0.000113585
*RES
1 *743:X s15 19.3371 
*END

*D_NET *45 0.00149975
*CONN
*P s16 O
*I *744:X O *D sky130_fd_sc_hd__buf_1
*CAP
1 s16 0.000500203
2 *744:X 0.000500203
3 s16 *645:D 3.9733e-05
4 s16 *647:D 0.00025422
5 s16 *204:12 3.81084e-05
6 cout s16 0
7 s15 s16 0
8 *735:A s16 0.000167279
*RES
1 *744:X s16 23.8033 
*END

*D_NET *46 0.000586061
*CONN
*P s2 O
*I *745:X O *D sky130_fd_sc_hd__buf_1
*CAP
1 s2 0.000277271
2 *745:X 0.000277271
3 s2 s3 0
4 s2 *745:A 3.15196e-05
5 s1 s2 0
*RES
1 *745:X s2 18.73 
*END

*D_NET *47 0.00206082
*CONN
*P s3 O
*I *746:X O *D sky130_fd_sc_hd__buf_1
*CAP
1 s3 0.00103041
2 *746:X 0.00103041
3 s3 s4 0
4 s3 *652:D 0
5 s3 *115:52 0
6 s2 s3 0
*RES
1 *746:X s3 20.5623 
*END

*D_NET *48 0.000682111
*CONN
*P s4 O
*I *747:X O *D sky130_fd_sc_hd__buf_1
*CAP
1 s4 0.000334801
2 *747:X 0.000334801
3 s4 s5 1.25084e-05
4 s3 s4 0
*RES
1 *747:X s4 20.7838 
*END

*D_NET *49 0.000596944
*CONN
*P s5 O
*I *748:X O *D sky130_fd_sc_hd__buf_1
*CAP
1 s5 0.000292218
2 *748:X 0.000292218
3 s5 s6 0
4 s4 s5 1.25084e-05
*RES
1 *748:X s5 20.4803 
*END

*D_NET *50 0.000694064
*CONN
*P s6 O
*I *749:X O *D sky130_fd_sc_hd__buf_1
*CAP
1 s6 0.000342726
2 *749:X 0.000342726
3 s6 s7 8.6123e-06
4 s5 s6 0
*RES
1 *749:X s6 20.7838 
*END

*D_NET *51 0.000605443
*CONN
*P s7 O
*I *750:X O *D sky130_fd_sc_hd__buf_1
*CAP
1 s7 0.000298415
2 *750:X 0.000298415
3 s7 s8 0
4 s7 *628:A 0
5 s6 s7 8.6123e-06
*RES
1 *750:X s7 19.3371 
*END

*D_NET *52 0.000680984
*CONN
*P s8 O
*I *751:X O *D sky130_fd_sc_hd__buf_1
*CAP
1 s8 0.000337833
2 *751:X 0.000337833
3 s8 s9 5.31679e-06
4 s7 s8 0
*RES
1 *751:X s8 20.7838 
*END

*D_NET *53 0.00072242
*CONN
*P s9 O
*I *752:X O *D sky130_fd_sc_hd__buf_1
*CAP
1 s9 0.000355893
2 *752:X 0.000355893
3 s10 s9 5.31679e-06
4 s8 s9 5.31679e-06
*RES
1 *752:X s9 21.0874 
*END

*D_NET *54 0.00160361
*CONN
*I *617:B1 I *D sky130_fd_sc_hd__a21oi_2
*I *616:X O *D sky130_fd_sc_hd__and2b_1
*CAP
1 *617:B1 0.000567304
2 *616:X 0.000567304
3 *617:B1 *616:B 6.13148e-05
4 *617:B1 *633:B 0.00031161
5 *617:B1 *112:14 3.66572e-05
6 *617:B1 *145:12 5.94205e-05
*RES
1 *616:X *617:B1 35.5286 
*END

*D_NET *55 0.00128081
*CONN
*I *619:A_N I *D sky130_fd_sc_hd__and2b_1
*I *618:B I *D sky130_fd_sc_hd__xnor2_1
*I *617:Y O *D sky130_fd_sc_hd__a21oi_2
*CAP
1 *619:A_N 0.000334358
2 *618:B 0.000250153
3 *617:Y 0
4 *55:4 0.000584511
5 *618:B *617:A2 7.05478e-05
6 *618:B *618:A 1.8461e-05
7 *619:A_N *617:A2 2.27766e-05
*RES
1 *617:Y *55:4 9.3 
2 *55:4 *618:B 12.925 
3 *55:4 *619:A_N 22.6393 
*END

*D_NET *56 0.00207951
*CONN
*I *634:B I *D sky130_fd_sc_hd__xor2_1
*I *620:A2 I *D sky130_fd_sc_hd__a21oi_2
*I *618:Y O *D sky130_fd_sc_hd__xnor2_1
*CAP
1 *634:B 0
2 *620:A2 0.000137296
3 *618:Y 0.000370504
4 *56:12 0.0005078
5 *620:A2 *620:A1 0.000264005
6 *620:A2 *620:B1 0.000272811
7 *620:A2 *58:6 0.000229456
8 *620:A2 *195:18 5.52238e-05
9 *620:A2 *196:26 1.21289e-05
10 *56:12 *617:A2 3.5566e-05
11 *56:12 *633:A 6.42242e-05
12 *56:12 *185:10 5.21676e-05
13 *56:12 *193:10 7.8327e-05
14 *56:12 *195:18 0
*RES
1 *618:Y *56:12 24.55 
2 *56:12 *620:A2 15.4607 
3 *56:12 *634:B 9.3 
*END

*D_NET *57 0.00207713
*CONN
*I *620:B1 I *D sky130_fd_sc_hd__a21oi_2
*I *619:X O *D sky130_fd_sc_hd__and2b_1
*CAP
1 *620:B1 0.00075736
2 *619:X 0.00075736
3 *620:B1 *619:B 9.99853e-05
4 *620:B1 *145:12 3.92757e-05
5 *620:B1 *195:18 9.31893e-05
6 *620:B1 *196:26 5.71472e-05
7 *620:A2 *620:B1 0.000272811
*RES
1 *619:X *620:B1 39.725 
*END

*D_NET *58 0.00213475
*CONN
*I *622:A_N I *D sky130_fd_sc_hd__and2b_1
*I *621:B I *D sky130_fd_sc_hd__xnor2_1
*I *620:Y O *D sky130_fd_sc_hd__a21oi_2
*CAP
1 *622:A_N 0.000276789
2 *621:B 6.88974e-05
3 *620:Y 0.00013975
4 *58:6 0.000485437
5 *621:B *621:A 5.45307e-05
6 *621:B *196:26 0.000186801
7 *622:A_N *621:A 0.00012551
8 *622:A_N *622:B 4.93964e-05
9 *622:A_N *665:D 0
10 *58:6 *196:26 0.000518178
11 *620:A2 *58:6 0.000229456
*RES
1 *620:Y *58:6 14.3536 
2 *58:6 *621:B 11.4964 
3 *58:6 *622:A_N 24.1214 
*END

*D_NET *59 0.000863018
*CONN
*I *643:B I *D sky130_fd_sc_hd__xor2_1
*I *623:A2 I *D sky130_fd_sc_hd__a21o_1
*I *621:Y O *D sky130_fd_sc_hd__xnor2_1
*CAP
1 *643:B 2.24433e-05
2 *623:A2 7.11563e-05
3 *621:Y 0.000133975
4 *59:10 0.000227574
5 *623:A2 *643:A 8.64537e-05
6 *623:A2 *199:18 2.85321e-05
7 *643:B *643:A 2.85321e-05
8 *59:10 *663:D 0.000162937
9 *59:10 *176:10 3.75868e-05
10 *59:10 *199:18 6.38285e-05
*RES
1 *621:Y *59:10 22.3714 
2 *59:10 *623:A2 11.0857 
3 *59:10 *643:B 9.83571 
*END

*D_NET *60 0.00108199
*CONN
*I *623:B1 I *D sky130_fd_sc_hd__a21o_1
*I *622:X O *D sky130_fd_sc_hd__and2b_1
*CAP
1 *623:B1 0.00039546
2 *622:X 0.00039546
3 *623:B1 *643:A 0.000291071
*RES
1 *622:X *623:B1 23.975 
*END

*D_NET *61 0.00607811
*CONN
*I *625:B I *D sky130_fd_sc_hd__xnor2_1
*I *624:Y O *D sky130_fd_sc_hd__nand2_1
*CAP
1 *625:B 0.00078569
2 *624:Y 0.000930939
3 *61:12 0.00171663
4 *625:B *678:D 3.26701e-05
5 *625:B *115:44 6.30315e-05
6 *625:B *115:52 0.000207615
7 *61:12 *579:A 0.000197989
8 *61:12 *582:B 8.49275e-05
9 *61:12 *585:A1 0.000199825
10 *61:12 *590:A1 0
11 *61:12 *624:B 1.84776e-05
12 *61:12 *681:D 0
13 *61:12 *86:12 0.000128718
14 *61:12 *115:29 0.0001661
15 *61:12 *173:27 0.00103295
16 *61:12 *206:10 0.000325527
17 *61:12 *206:12 0.000187026
*RES
1 *624:Y *61:12 46.5857 
2 *61:12 *625:B 19.6036 
*END

*D_NET *62 0.00206823
*CONN
*I *627:B I *D sky130_fd_sc_hd__and2_1
*I *626:X O *D sky130_fd_sc_hd__or2_1
*CAP
1 *627:B 0.000378771
2 *626:X 0.000378771
3 *627:B *576:A_N 0.0002685
4 *627:B *576:B 2.70242e-05
5 *627:B *576:C 2.36643e-05
6 *627:B *577:A1 0.000269654
7 *627:B *584:D 0.000270257
8 *627:B *627:A 0.000284098
9 *627:B *74:12 2.27766e-05
10 *627:B *173:27 4.63699e-05
11 *627:B *201:18 0
12 *627:B *204:28 9.83442e-05
*RES
1 *626:X *627:B 38.1179 
*END

*D_NET *63 0.00101928
*CONN
*I *628:A I *D sky130_fd_sc_hd__clkbuf_1
*I *627:X O *D sky130_fd_sc_hd__and2_1
*CAP
1 *628:A 0.000483065
2 *627:X 0.000483065
3 *628:A *75:12 5.31466e-05
4 *628:A *204:28 0
5 s7 *628:A 0
*RES
1 *627:X *628:A 36.0643 
*END

*D_NET *64 0.0015222
*CONN
*I *630:B I *D sky130_fd_sc_hd__xor2_1
*I *629:X O *D sky130_fd_sc_hd__and2b_1
*CAP
1 *630:B 0.000493553
2 *629:X 0.000493553
3 *630:B *749:A 5.20669e-05
4 *630:B *751:A 9.79078e-05
5 *630:B *173:27 0.000349224
6 *630:B *201:18 0
7 *630:B *205:26 3.58899e-05
*RES
1 *629:X *630:B 38.4214 
*END

*D_NET *65 0.000442054
*CONN
*I *640:B I *D sky130_fd_sc_hd__xnor2_1
*I *639:Y O *D sky130_fd_sc_hd__nand2b_1
*CAP
1 *640:B 0.000104327
2 *639:Y 0.000104327
3 *640:B *749:A 5.03772e-05
4 *640:B *115:19 5.18293e-05
5 *640:B *207:12 7.78928e-05
6 *640:B *209:14 5.33005e-05
*RES
1 *639:Y *640:B 30.4929 
*END

*D_NET *66 0.00129691
*CONN
*I *614:A1 I *D sky130_fd_sc_hd__o21a_1
*I *568:Y O *D sky130_fd_sc_hd__inv_2
*CAP
1 *614:A1 0.000451003
2 *568:Y 0.000451003
3 *614:A1 *568:A 7.43578e-06
4 *614:A1 *632:B 0.000284209
5 *614:A1 *690:D 0.00010326
*RES
1 *568:Y *614:A1 35.9929 
*END

*D_NET *67 0.0003484
*CONN
*I *602:A1 I *D sky130_fd_sc_hd__o21a_1
*I *569:Y O *D sky130_fd_sc_hd__clkinvlp_2
*CAP
1 *602:A1 0.000128872
2 *569:Y 0.000128872
3 *602:A1 *601:A 3.08664e-05
4 *602:A1 *602:B1 0
5 *602:A1 *114:37 5.97884e-05
*RES
1 *569:Y *602:A1 29.7786 
*END

*D_NET *68 0.00176551
*CONN
*I *624:B I *D sky130_fd_sc_hd__nand2_1
*I *572:A2 I *D sky130_fd_sc_hd__a21bo_1
*I *570:X O *D sky130_fd_sc_hd__or2_4
*CAP
1 *624:B 0.000141929
2 *572:A2 7.56096e-05
3 *570:X 4.67238e-05
4 *68:10 0.000264263
5 *572:A2 *572:A1 0.000227687
6 *572:A2 *739:A 0.000269372
7 *624:B *572:A1 4.17702e-05
8 *624:B *572:B1_N 0.000164733
9 *624:B *584:B 0.000184454
10 *624:B *739:A 0.000182848
11 *68:10 *581:A 4.79864e-05
12 *68:10 *200:18 9.96553e-05
13 *61:12 *624:B 1.84776e-05
*RES
1 *570:X *68:10 19.6393 
2 *68:10 *572:A2 12.3179 
3 *68:10 *624:B 14.5143 
*END

*D_NET *69 0.00139101
*CONN
*I *624:A I *D sky130_fd_sc_hd__nand2_1
*I *572:B1_N I *D sky130_fd_sc_hd__a21bo_1
*I *571:Y O *D sky130_fd_sc_hd__nand2_1
*CAP
1 *624:A 0
2 *572:B1_N 0.000127004
3 *571:Y 0.000213463
4 *69:12 0.000340467
5 *572:B1_N *572:A1 4.97967e-05
6 *572:B1_N *173:27 0.000312396
7 *69:12 *740:A 0.000141807
8 *69:12 *206:10 4.13441e-05
9 *624:B *572:B1_N 0.000164733
*RES
1 *571:Y *69:12 21.6036 
2 *69:12 *572:B1_N 13.55 
3 *69:12 *624:A 9.3 
*END

*D_NET *70 0.000800119
*CONN
*I *573:B I *D sky130_fd_sc_hd__nand2_1
*I *574:B I *D sky130_fd_sc_hd__xor2_1
*I *572:X O *D sky130_fd_sc_hd__a21bo_1
*CAP
1 *573:B 4.80081e-05
2 *574:B 9.58911e-06
3 *572:X 9.93785e-05
4 *70:10 0.000156976
5 *573:B *574:A 0.000144672
6 *573:B *738:A 1.67291e-05