*SPEF "ieee 1481-1999"
*DESIGN "adder"
*DATE "10:39:44 Thursday April 17, 2025"
*VENDOR "The OpenROAD Project"
*PROGRAM "OpenROAD"
*VERSION "b16bda7e82721d10566ff7e2b68f1ff0be9f9e38"
*DESIGN_FLOW "NAME_SCOPE LOCAL" "PIN_CAP NONE"
*DIVIDER /
*DELIMITER :
*BUS_DELIMITER []
*T_UNIT 1 NS
*C_UNIT 1 PF
*R_UNIT 1 OHM
*L_UNIT 1 HENRY

*NAME_MAP
*3 a1
*4 a10
*5 a11
*6 a12
*7 a13
*8 a14
*9 a15
*10 a16
*11 a2
*12 a3
*13 a4
*14 a5
*15 a6
*16 a7
*17 a8
*18 a9
*19 b1
*20 b10
*21 b11
*22 b12
*23 b13
*24 b14
*25 b15
*26 b16
*27 b2
*28 b3
*29 b4
*30 b5
*31 b6
*32 b7
*33 b8
*34 b9
*35 cin
*36 clk
*37 cout
*38 s1
*39 s10
*40 s11
*41 s12
*42 s13
*43 s14
*44 s15
*45 s16
*46 s2
*47 s3
*48 s4
*49 s5
*50 s6
*51 s7
*52 s8
*53 s9
*54 _000_
*55 _001_
*56 _002_
*57 _003_
*58 _004_
*59 _005_
*60 _006_
*61 _007_
*62 _008_
*63 _009_
*64 _010_
*65 _011_
*66 _012_
*67 _013_
*68 _014_
*69 _015_
*70 _016_
*71 _017_
*72 _018_
*73 _019_
*74 _020_
*75 _021_
*76 _022_
*77 _023_
*78 _024_
*79 _025_
*80 _026_
*81 _027_
*82 _028_
*83 _029_
*84 _030_
*85 _031_
*86 _032_
*87 _033_
*88 _034_
*89 _035_
*90 _036_
*91 _037_
*92 _038_
*93 _039_
*94 _040_
*95 _041_
*96 _042_
*97 _043_
*98 _044_
*99 _045_
*100 _046_
*101 _047_
*102 _048_
*103 _049_
*104 _050_
*105 _051_
*106 _052_
*107 _053_
*108 _054_
*109 _055_
*110 _056_
*111 _057_
*112 _058_
*113 _059_
*114 _060_
*115 _061_
*116 _062_
*117 _063_
*118 _064_
*119 _065_
*120 _066_
*121 _067_
*122 _068_
*123 _069_
*124 _070_
*125 _071_
*126 _072_
*127 _073_
*128 _074_
*129 _075_
*130 _076_
*131 _077_
*132 _078_
*133 _079_
*134 _080_
*135 _081_
*136 _082_
*137 _083_
*138 _084_
*139 _085_
*140 _086_
*141 _087_
*142 _088_
*143 _089_
*144 _090_
*145 _091_
*146 _092_
*147 _093_
*148 _094_
*149 _095_
*150 _096_
*151 _097_
*152 _098_
*153 _099_
*154 _100_
*155 _101_
*156 _102_
*157 _103_
*158 _104_
*159 _105_
*160 _106_
*161 _107_
*162 _108_
*163 _109_
*164 _110_
*165 _111_
*166 _112_
*167 _113_
*168 _114_
*169 _115_
*170 _116_
*171 _117_
*172 _118_
*173 _119_
*174 _120_
*175 _121_
*176 _122_
*177 _123_
*178 _124_
*179 _125_
*180 clknet_0_clk
*181 clknet_2_0__leaf_clk
*182 clknet_2_1__leaf_clk
*183 clknet_2_2__leaf_clk
*184 clknet_2_3__leaf_clk
*185 net1
*186 net10
*187 net11
*188 net12
*189 net13
*190 net14
*191 net15
*192 net16
*193 net17
*194 net18
*195 net19
*196 net2
*197 net20
*198 net21
*199 net22
*200 net23
*201 net24
*202 net25
*203 net26
*204 net27
*205 net28
*206 net29
*207 net3
*208 net30
*209 net31
*210 net32
*211 net33
*212 net34
*213 net35
*214 net36
*215 net37
*216 net38
*217 net39
*218 net4
*219 net40
*220 net41
*221 net42
*222 net43
*223 net44
*224 net45
*225 net46
*226 net47
*227 net48
*228 net49
*229 net5
*230 net50
*231 net51
*232 net52
*233 net53
*234 net54
*235 net55
*236 net56
*237 net57
*238 net58
*239 net59
*240 net6
*241 net60
*242 net61
*243 net7
*244 net8
*245 net9
*246 x10\.A
*247 x10\.B
*248 x101\.c
*249 x113\.C
*250 x12\.A
*251 x12\.B
*252 x14\.A
*253 x14\.B
*254 x16\.A
*255 x16\.B
*256 x18\.A
*257 x18\.B
*258 x2\.A
*259 x2\.B
*260 x20\.A
*261 x20\.B
*262 x22\.A
*263 x22\.B
*264 x24\.A
*265 x24\.B
*266 x26\.A
*267 x26\.B
*268 x28\.A
*269 x28\.B
*270 x30\.A
*271 x30\.B
*272 x32\.A
*273 x32\.B
*274 x4\.A
*275 x4\.B
*276 x6\.A
*277 x6\.B
*278 x63\.S
*279 x64\.S
*280 x65\.S
*281 x66\.S
*282 x67\.S
*283 x68\.S
*284 x69\.S
*285 x70\.S
*286 x71\.S
*287 x72\.S
*288 x73\.S
*289 x74\.S
*290 x75\.S
*291 x76\.S
*292 x77\.S
*293 x78\.S
*294 x8\.A
*295 x8\.B
*296 FILLER_0_0_101
*297 FILLER_0_0_107
*298 FILLER_0_0_111
*299 FILLER_0_0_113
*300 FILLER_0_0_117
*301 FILLER_0_0_121
*302 FILLER_0_0_127
*303 FILLER_0_0_131
*304 FILLER_0_0_141
*305 FILLER_0_0_27
*306 FILLER_0_0_32
*307 FILLER_0_0_41
*308 FILLER_0_0_47
*309 FILLER_0_0_51
*310 FILLER_0_0_55
*311 FILLER_0_0_57
*312 FILLER_0_0_6
*313 FILLER_0_0_61
*314 FILLER_0_0_67
*315 FILLER_0_0_71
*316 FILLER_0_0_77
*317 FILLER_0_0_81
*318 FILLER_0_0_85
*319 FILLER_0_0_91
*320 FILLER_0_0_97
*321 FILLER_0_10_107
*322 FILLER_0_10_119
*323 FILLER_0_10_123
*324 FILLER_0_10_141
*325 FILLER_0_10_33
*326 FILLER_0_10_58
*327 FILLER_0_10_6
*328 FILLER_0_10_81
*329 FILLER_0_10_85
*330 FILLER_0_11_110
*331 FILLER_0_11_113
*332 FILLER_0_11_141
*333 FILLER_0_11_21
*334 FILLER_0_11_32
*335 FILLER_0_11_55
*336 FILLER_0_11_57
*337 FILLER_0_11_9
*338 FILLER_0_11_93
*339 FILLER_0_12_102
*340 FILLER_0_12_117
*341 FILLER_0_12_129
*342 FILLER_0_12_137
*343 FILLER_0_12_141
*344 FILLER_0_12_20
*345 FILLER_0_12_24
*346 FILLER_0_12_3
*347 FILLER_0_12_85
*348 FILLER_0_13_101
*349 FILLER_0_13_107
*350 FILLER_0_13_111
*351 FILLER_0_13_113
*352 FILLER_0_13_125
*353 FILLER_0_13_137
*354 FILLER_0_13_20
*355 FILLER_0_13_28
*356 FILLER_0_13_3
*357 FILLER_0_13_44
*358 FILLER_0_13_55
*359 FILLER_0_13_65
*360 FILLER_0_13_77
*361 FILLER_0_13_89
*362 FILLER_0_14_115
*363 FILLER_0_14_127
*364 FILLER_0_14_141
*365 FILLER_0_14_24
*366 FILLER_0_14_29
*367 FILLER_0_14_3
*368 FILLER_0_14_37
*369 FILLER_0_14_64
*370 FILLER_0_14_71
*371 FILLER_0_14_82
*372 FILLER_0_14_85
*373 FILLER_0_14_90
*374 FILLER_0_15_140
*375 FILLER_0_15_21
*376 FILLER_0_15_3
*377 FILLER_0_15_57
*378 FILLER_0_15_77
*379 FILLER_0_16_141
*380 FILLER_0_16_22
*381 FILLER_0_16_29
*382 FILLER_0_16_41
*383 FILLER_0_16_49
*384 FILLER_0_16_56
*385 FILLER_0_16_63
*386 FILLER_0_16_72
*387 FILLER_0_16_83
*388 FILLER_0_16_85
*389 FILLER_0_16_94
*390 FILLER_0_17_100
*391 FILLER_0_17_142
*392 FILLER_0_17_34
*393 FILLER_0_17_54
*394 FILLER_0_17_57
*395 FILLER_0_17_6
*396 FILLER_0_17_64
*397 FILLER_0_17_81
*398 FILLER_0_17_92
*399 FILLER_0_18_116
*400 FILLER_0_18_131
*401 FILLER_0_18_141
*402 FILLER_0_18_24
*403 FILLER_0_18_29
*404 FILLER_0_18_44
*405 FILLER_0_18_58
*406 FILLER_0_18_6
*407 FILLER_0_18_70
*408 FILLER_0_18_79
*409 FILLER_0_18_83
*410 FILLER_0_18_85
*411 FILLER_0_18_97
*412 FILLER_0_19_105
*413 FILLER_0_19_111
*414 FILLER_0_19_113
*415 FILLER_0_19_141
*416 FILLER_0_19_20
*417 FILLER_0_19_3
*418 FILLER_0_19_32
*419 FILLER_0_19_36
*420 FILLER_0_19_54
*421 FILLER_0_19_57
*422 FILLER_0_19_69
*423 FILLER_0_19_81
*424 FILLER_0_19_93
*425 FILLER_0_1_109
*426 FILLER_0_1_129
*427 FILLER_0_1_141
*428 FILLER_0_1_26
*429 FILLER_0_1_3
*430 FILLER_0_1_34
*431 FILLER_0_1_53
*432 FILLER_0_1_57
*433 FILLER_0_1_76
*434 FILLER_0_1_80
*435 FILLER_0_1_97
*436 FILLER_0_20_105
*437 FILLER_0_20_117
*438 FILLER_0_20_136
*439 FILLER_0_20_141
*440 FILLER_0_20_20
*441 FILLER_0_20_3
*442 FILLER_0_20_45
*443 FILLER_0_20_49
*444 FILLER_0_20_82
*445 FILLER_0_20_85
*446 FILLER_0_21_111
*447 FILLER_0_21_129
*448 FILLER_0_21_137
*449 FILLER_0_21_25
*450 FILLER_0_21_37
*451 FILLER_0_21_57
*452 FILLER_0_21_6
*453 FILLER_0_21_65
*454 FILLER_0_21_99
*455 FILLER_0_22_117
*456 FILLER_0_22_123
*457 FILLER_0_22_141
*458 FILLER_0_22_20
*459 FILLER_0_22_3
*460 FILLER_0_22_45
*461 FILLER_0_22_57
*462 FILLER_0_22_74
*463 FILLER_0_22_82
*464 FILLER_0_22_85
*465 FILLER_0_22_97
*466 FILLER_0_23_101
*467 FILLER_0_23_107
*468 FILLER_0_23_111
*469 FILLER_0_23_113
*470 FILLER_0_23_117
*471 FILLER_0_23_121
*472 FILLER_0_23_127
*473 FILLER_0_23_131
*474 FILLER_0_23_141
*475 FILLER_0_23_17
*476 FILLER_0_23_24
*477 FILLER_0_23_32
*478 FILLER_0_23_41
*479 FILLER_0_23_47
*480 FILLER_0_23_51
*481 FILLER_0_23_55
*482 FILLER_0_23_57
*483 FILLER_0_23_6
*484 FILLER_0_23_61
*485 FILLER_0_23_67
*486 FILLER_0_23_71
*487 FILLER_0_23_77
*488 FILLER_0_23_81
*489 FILLER_0_23_85
*490 FILLER_0_23_91
*491 FILLER_0_23_97
*492 FILLER_0_2_121
*493 FILLER_0_2_133
*494 FILLER_0_2_139
*495 FILLER_0_2_141
*496 FILLER_0_2_29
*497 FILLER_0_2_33
*498 FILLER_0_2_66
*499 FILLER_0_2_85
*500 FILLER_0_3_110
*501 FILLER_0_3_113
*502 FILLER_0_3_125
*503 FILLER_0_3_137
*504 FILLER_0_3_28
*505 FILLER_0_3_3
*506 FILLER_0_3_45
*507 FILLER_0_3_53
*508 FILLER_0_3_57
*509 FILLER_0_3_69
*510 FILLER_0_3_73
*511 FILLER_0_3_90
*512 FILLER_0_4_109
*513 FILLER_0_4_121
*514 FILLER_0_4_133
*515 FILLER_0_4_139
*516 FILLER_0_4_141
*517 FILLER_0_4_29
*518 FILLER_0_4_3
*519 FILLER_0_4_56
*520 FILLER_0_4_68
*521 FILLER_0_4_80
*522 FILLER_0_4_85
*523 FILLER_0_4_97
*524 FILLER_0_5_110
*525 FILLER_0_5_113
*526 FILLER_0_5_125
*527 FILLER_0_5_137
*528 FILLER_0_5_14
*529 FILLER_0_5_28
*530 FILLER_0_5_44
*531 FILLER_0_5_55
*532 FILLER_0_5_6
*533 FILLER_0_5_74
*534 FILLER_0_5_86
*535 FILLER_0_5_98
*536 FILLER_0_6_109
*537 FILLER_0_6_121
*538 FILLER_0_6_133
*539 FILLER_0_6_139
*540 FILLER_0_6_141
*541 FILLER_0_6_38
*542 FILLER_0_6_58
*543 FILLER_0_6_71
*544 FILLER_0_6_85
*545 FILLER_0_6_9
*546 FILLER_0_6_97
*547 FILLER_0_7_101
*548 FILLER_0_7_110
*549 FILLER_0_7_113
*550 FILLER_0_7_117
*551 FILLER_0_7_134
*552 FILLER_0_7_142
*553 FILLER_0_7_3
*554 FILLER_0_7_57
*555 FILLER_0_7_62
*556 FILLER_0_7_93
*557 FILLER_0_8_123
*558 FILLER_0_8_135
*559 FILLER_0_8_139
*560 FILLER_0_8_141
*561 FILLER_0_8_21
*562 FILLER_0_8_3
*563 FILLER_0_8_36
*564 FILLER_0_8_77
*565 FILLER_0_8_83
*566 FILLER_0_8_97
*567 FILLER_0_9_104
*568 FILLER_0_9_113
*569 FILLER_0_9_141
*570 FILLER_0_9_20
*571 FILLER_0_9_3
*572 FILLER_0_9_73
*573 FILLER_0_9_81
*574 PHY_EDGE_ROW_0_Left_24
*575 PHY_EDGE_ROW_0_Right_0
*576 PHY_EDGE_ROW_10_Left_34
*577 PHY_EDGE_ROW_10_Right_10
*578 PHY_EDGE_ROW_11_Left_35
*579 PHY_EDGE_ROW_11_Right_11
*580 PHY_EDGE_ROW_12_Left_36
*581 PHY_EDGE_ROW_12_Right_12
*582 PHY_EDGE_ROW_13_Left_37
*583 PHY_EDGE_ROW_13_Right_13
*584 PHY_EDGE_ROW_14_Left_38
*585 PHY_EDGE_ROW_14_Right_14
*586 PHY_EDGE_ROW_15_Left_39
*587 PHY_EDGE_ROW_15_Right_15
*588 PHY_EDGE_ROW_16_Left_40
*589 PHY_EDGE_ROW_16_Right_16
*590 PHY_EDGE_ROW_17_Left_41
*591 PHY_EDGE_ROW_17_Right_17
*592 PHY_EDGE_ROW_18_Left_42
*593 PHY_EDGE_ROW_18_Right_18
*594 PHY_EDGE_ROW_19_Left_43
*595 PHY_EDGE_ROW_19_Right_19
*596 PHY_EDGE_ROW_1_Left_25
*597 PHY_EDGE_ROW_1_Right_1
*598 PHY_EDGE_ROW_20_Left_44
*599 PHY_EDGE_ROW_20_Right_20
*600 PHY_EDGE_ROW_21_Left_45
*601 PHY_EDGE_ROW_21_Right_21
*602 PHY_EDGE_ROW_22_Left_46
*603 PHY_EDGE_ROW_22_Right_22
*604 PHY_EDGE_ROW_23_Left_47
*605 PHY_EDGE_ROW_23_Right_23
*606 PHY_EDGE_ROW_2_Left_26
*607 PHY_EDGE_ROW_2_Right_2
*608 PHY_EDGE_ROW_3_Left_27
*609 PHY_EDGE_ROW_3_Right_3
*610 PHY_EDGE_ROW_4_Left_28
*611 PHY_EDGE_ROW_4_Right_4
*612 PHY_EDGE_ROW_5_Left_29
*613 PHY_EDGE_ROW_5_Right_5
*614 PHY_EDGE_ROW_6_Left_30
*615 PHY_EDGE_ROW_6_Right_6
*616 PHY_EDGE_ROW_7_Left_31
*617 PHY_EDGE_ROW_7_Right_7
*618 PHY_EDGE_ROW_8_Left_32
*619 PHY_EDGE_ROW_8_Right_8
*620 PHY_EDGE_ROW_9_Left_33
*621 PHY_EDGE_ROW_9_Right_9
*622 TAP_TAPCELL_ROW_0_48
*623 TAP_TAPCELL_ROW_0_49
*624 TAP_TAPCELL_ROW_0_50
*625 TAP_TAPCELL_ROW_0_51
*626 TAP_TAPCELL_ROW_0_52
*627 TAP_TAPCELL_ROW_10_75
*628 TAP_TAPCELL_ROW_10_76
*629 TAP_TAPCELL_ROW_10_77
*630 TAP_TAPCELL_ROW_11_78
*631 TAP_TAPCELL_ROW_11_79
*632 TAP_TAPCELL_ROW_12_80
*633 TAP_TAPCELL_ROW_12_81
*634 TAP_TAPCELL_ROW_12_82
*635 TAP_TAPCELL_ROW_13_83
*636 TAP_TAPCELL_ROW_13_84
*637 TAP_TAPCELL_ROW_14_85
*638 TAP_TAPCELL_ROW_14_86
*639 TAP_TAPCELL_ROW_14_87
*640 TAP_TAPCELL_ROW_15_88
*641 TAP_TAPCELL_ROW_15_89
*642 TAP_TAPCELL_ROW_16_90
*643 TAP_TAPCELL_ROW_16_91
*644 TAP_TAPCELL_ROW_16_92
*645 TAP_TAPCELL_ROW_17_93
*646 TAP_TAPCELL_ROW_17_94
*647 TAP_TAPCELL_ROW_18_95
*648 TAP_TAPCELL_ROW_18_96
*649 TAP_TAPCELL_ROW_18_97
*650 TAP_TAPCELL_ROW_19_98
*651 TAP_TAPCELL_ROW_19_99
*652 TAP_TAPCELL_ROW_1_53
*653 TAP_TAPCELL_ROW_1_54
*654 TAP_TAPCELL_ROW_20_100
*655 TAP_TAPCELL_ROW_20_101
*656 TAP_TAPCELL_ROW_20_102
*657 TAP_TAPCELL_ROW_21_103
*658 TAP_TAPCELL_ROW_21_104
*659 TAP_TAPCELL_ROW_22_105
*660 TAP_TAPCELL_ROW_22_106
*661 TAP_TAPCELL_ROW_22_107
*662 TAP_TAPCELL_ROW_23_108
*663 TAP_TAPCELL_ROW_23_109
*664 TAP_TAPCELL_ROW_23_110
*665 TAP_TAPCELL_ROW_23_111
*666 TAP_TAPCELL_ROW_23_112
*667 TAP_TAPCELL_ROW_2_55
*668 TAP_TAPCELL_ROW_2_56
*669 TAP_TAPCELL_ROW_2_57
*670 TAP_TAPCELL_ROW_3_58
*671 TAP_TAPCELL_ROW_3_59
*672 TAP_TAPCELL_ROW_4_60
*673 TAP_TAPCELL_ROW_4_61
*674 TAP_TAPCELL_ROW_4_62
*675 TAP_TAPCELL_ROW_5_63
*676 TAP_TAPCELL_ROW_5_64
*677 TAP_TAPCELL_ROW_6_65
*678 TAP_TAPCELL_ROW_6_66
*679 TAP_TAPCELL_ROW_6_67
*680 TAP_TAPCELL_ROW_7_68
*681 TAP_TAPCELL_ROW_7_69
*682 TAP_TAPCELL_ROW_8_70
*683 TAP_TAPCELL_ROW_8_71
*684 TAP_TAPCELL_ROW_8_72
*685 TAP_TAPCELL_ROW_9_73
*686 TAP_TAPCELL_ROW_9_74
*687 _126_
*688 _127_
*689 _128_
*690 _129_
*691 _130_
*692 _131_
*693 _132_
*694 _133_
*695 _134_
*696 _135_
*697 _136_
*698 _137_
*699 _138_
*700 _139_
*701 _140_
*702 _141_
*703 _142_
*704 _143_
*705 _144_
*706 _145_
*707 _146_
*708 _147_
*709 _148_
*710 _149_
*711 _150_
*712 _151_
*713 _152_
*714 _153_
*715 _154_
*716 _155_
*717 _156_
*718 _157_
*719 _158_
*720 _159_
*721 _160_
*722 _161_
*723 _162_
*724 _163_
*725 _164_
*726 _165_
*727 _166_
*728 _167_
*729 _168_
*730 _169_
*731 _170_
*732 _171_
*733 _172_
*734 _173_
*735 _174_
*736 _175_
*737 _176_
*738 _177_
*739 _178_
*740 _179_
*741 _180_
*742 _181_
*743 _182_
*744 _183_
*745 _184_
*746 _185_
*747 _186_
*748 _187_
*749 _188_
*750 _189_
*751 _190_
*752 _191_
*753 _192_
*754 _193_
*755 _194_
*756 _195_
*757 _196_
*758 _197_
*759 _198_
*760 _199_
*761 _200_
*762 _201_
*763 _202_
*764 _203_
*765 _204_
*766 _205_
*767 _206_
*768 _207_
*769 _208_
*770 _209_
*771 _210_
*772 _211_
*773 _212_
*774 _213_
*775 _214_
*776 _215_
*777 _216_
*778 _217_
*779 _218_
*780 _219_
*781 _220_
*782 _221_
*783 _222_
*784 _223_
*785 _224_
*786 _225_
*787 _226_
*788 _227_
*789 _228_
*790 _229_
*791 _230_
*792 _231_
*793 _232_
*794 _233_
*795 _234_
*796 _235_
*797 _236_
*798 _237_
*799 _238_
*800 _239_
*801 _240_
*802 _241_
*803 _242_
*804 _243_
*805 _244_
*806 _245_
*807 _246_
*808 _247_
*809 _248_
*810 _249_
*811 _250_
*812 _251_
*813 _252_
*814 _253_
*815 _254_
*816 _255_
*817 _256_
*818 _257_
*819 _258_
*820 _259_
*821 _260_
*822 _261_
*823 _262_
*824 _263_
*825 _264_
*826 _265_
*827 _266_
*828 _267_
*829 _268_
*830 _269_
*831 _270_
*832 _271_
*833 _272_
*834 _273_
*835 _274_
*836 _275_
*837 _276_
*838 _277_
*839 _278_
*840 _279_
*841 _280_
*842 _281_
*843 _282_
*844 _283_
*845 _284_
*846 _285_
*847 _286_
*848 _287_
*849 _288_
*850 _289_
*851 _290_
*852 _291_
*853 _292_
*854 _293_
*855 _294_
*856 _295_
*857 _296_
*858 _297_
*859 _298_
*860 _299_
*861 _300_
*862 _301_
*863 _302_
*864 _303_
*865 _304_
*866 _305_
*867 _306_
*868 _307_
*869 _308_
*870 _309_
*871 _310_
*872 _311_
*873 _312_
*874 _313_
*875 _314_
*876 _315_
*877 _316_
*878 _317_
*879 _318_
*880 clkbuf_0_clk
*881 clkbuf_2_0__f_clk
*882 clkbuf_2_1__f_clk
*883 clkbuf_2_2__f_clk
*884 clkbuf_2_3__f_clk
*885 clkload0
*886 clkload1
*887 clkload2
*888 input1
*889 input10
*890 input11
*891 input12
*892 input13
*893 input14
*894 input15
*895 input16
*896 input17
*897 input18
*898 input19
*899 input2
*900 input20
*901 input21
*902 input22
*903 input23
*904 input24
*905 input25
*906 input26
*907 input27
*908 input28
*909 input29
*910 input3
*911 input30
*912 input31
*913 input32
*914 input33
*915 input4
*916 input5
*917 input6
*918 input7
*919 input8
*920 input9
*921 output34
*922 output35
*923 output36
*924 output37
*925 output38
*926 output39
*927 output40
*928 output41
*929 output42
*930 output43
*931 output44
*932 output45
*933 output46
*934 output47
*935 output48
*936 output49
*937 output50
*938 rebuffer1
*939 rebuffer10
*940 rebuffer11
*941 rebuffer2
*942 rebuffer3
*943 rebuffer4
*944 rebuffer5
*945 rebuffer6
*946 rebuffer7
*947 rebuffer8
*948 rebuffer9

*PORTS
a1 I
a10 I
a11 I
a12 I
a13 I
a14 I
a15 I
a16 I
a2 I
a3 I
a4 I
a5 I
a6 I
a7 I
a8 I
a9 I
b1 I
b10 I
b11 I
b12 I
b13 I
b14 I
b15 I
b16 I
b2 I
b3 I
b4 I
b5 I
b6 I
b7 I
b8 I
b9 I
cin I
clk I
cout O
s1 O
s10 O
s11 O
s12 O
s13 O
s14 O
s15 O
s16 O
s2 O
s3 O
s4 O
s5 O
s6 O
s7 O
s8 O
s9 O

*D_NET *3 0.00228691
*CONN
*P a1 I
*I *888:A I *D sky130_fd_sc_hd__clkbuf_1
*CAP
1 a1 0.000815187
2 *888:A 0.000815187
3 *888:A s16 0.000104424
4 *888:A *920:A 0.000139907
5 *888:A *928:A 5.52302e-05
6 *888:A *929:A 8.26853e-05
7 *888:A *185:12 0.000274294
*RES
1 a1 *888:A 31.175 
*END

*D_NET *4 0.00112382
*CONN
*P a10 I
*I *899:A I *D sky130_fd_sc_hd__clkbuf_1
*CAP
1 a10 0.000561909
2 *899:A 0.000561909
3 *899:A *895:A 0
4 *899:A *910:A 0
*RES
1 a10 *899:A 24.4786 
*END

*D_NET *5 0.00122337
*CONN
*P a11 I
*I *910:A I *D sky130_fd_sc_hd__clkbuf_1
*CAP
1 a11 0.000611685
2 *910:A 0.000611685
3 *910:A *915:A 0
4 *899:A *910:A 0
*RES
1 a11 *910:A 27.0143 
*END

*D_NET *6 0.00112262
*CONN
*P a12 I
*I *915:A I *D sky130_fd_sc_hd__clkbuf_1
*CAP
1 a12 0.00056131
2 *915:A 0.00056131
3 *915:A *916:A 0
4 *910:A *915:A 0
*RES
1 a12 *915:A 24.4786 
*END

*D_NET *7 0.0011206
*CONN
*P a13 I
*I *916:A I *D sky130_fd_sc_hd__clkbuf_1
*CAP
1 a13 0.000560298
2 *916:A 0.000560298
3 *916:A *917:A 0
4 *915:A *916:A 0
*RES
1 a13 *916:A 24.4786 
*END

*D_NET *8 0.00112794
*CONN
*P a14 I
*I *917:A I *D sky130_fd_sc_hd__clkbuf_1
*CAP
1 a14 0.000552477
2 *917:A 0.000552477
3 *917:A *860:D 1.93007e-05
4 *917:A *862:D 3.69047e-06
5 *917:A *918:A 0
6 *916:A *917:A 0
*RES
1 a14 *917:A 24.4786 
*END

*D_NET *9 0.0011608
*CONN
*P a15 I
*I *918:A I *D sky130_fd_sc_hd__clkbuf_1
*CAP
1 a15 0.000530879
2 *918:A 0.000530879
3 *918:A *919:A 9.90431e-05
4 *917:A *918:A 0
*RES
1 a15 *918:A 24.0679 
*END

*D_NET *10 0.00161685
*CONN
*P a16 I
*I *919:A I *D sky130_fd_sc_hd__clkbuf_1
*CAP
1 a16 0.000758905
2 *919:A 0.000758905
3 *918:A *919:A 9.90431e-05
*RES
1 a16 *919:A 27.8893 
*END

*D_NET *11 0.00127073
*CONN
*P a2 I
*I *920:A I *D sky130_fd_sc_hd__clkbuf_1
*CAP
1 a2 0.000498619
2 *920:A 0.000498619
3 *920:A s16 7.4854e-05
4 *920:A *889:A 0
5 *920:A *928:A 2.8266e-06
6 *920:A *185:12 5.59013e-05
7 *888:A *920:A 0.000139907
*RES
1 a2 *920:A 24.4786 
*END

*D_NET *12 0.00122743
*CONN
*P a3 I
*I *889:A I *D sky130_fd_sc_hd__clkbuf_1
*CAP
1 a3 0.000542001
2 *889:A 0.000542001
3 *889:A cout 0
4 *889:A *890:A 0
5 *889:A *929:A 0.000143427
6 *920:A *889:A 0
*RES
1 a3 *889:A 24.4786 
*END

*D_NET *13 0.0011072
*CONN
*P a4 I
*I *890:A I *D sky130_fd_sc_hd__clkbuf_1
*CAP
1 a4 0.0005536
2 *890:A 0.0005536
3 *890:A cout 0
4 *890:A *891:A 0
5 *889:A *890:A 0
*RES
1 a4 *890:A 24.3179 
*END

*D_NET *14 0.00101799
*CONN
*P a5 I
*I *891:A I *D sky130_fd_sc_hd__clkbuf_1
*CAP
1 a5 0.000508996
2 *891:A 0.000508996
3 *891:A *892:A 0
4 *890:A *891:A 0
*RES
1 a5 *891:A 23.6571 
*END

*D_NET *15 0.00101477
*CONN
*P a6 I
*I *892:A I *D sky130_fd_sc_hd__clkbuf_1
*CAP
1 a6 0.000507386
2 *892:A 0.000507386
3 *892:A *893:A 0
4 *891:A *892:A 0
*RES
1 a6 *892:A 23.6571 
*END

*D_NET *16 0.00101731
*CONN
*P a7 I
*I *893:A I *D sky130_fd_sc_hd__clkbuf_1
*CAP
1 a7 0.000508653
2 *893:A 0.000508653
3 *893:A *894:A 0
4 *892:A *893:A 0
*RES
1 a7 *893:A 23.6571 
*END

*D_NET *17 0.00101679
*CONN
*P a8 I
*I *894:A I *D sky130_fd_sc_hd__clkbuf_1
*CAP
1 a8 0.000508397
2 *894:A 0.000508397
3 *894:A *895:A 0
4 *893:A *894:A 0
*RES
1 a8 *894:A 23.6571 
*END

*D_NET *18 0.0011206
*CONN
*P a9 I
*I *895:A I *D sky130_fd_sc_hd__clkbuf_1
*CAP
1 a9 0.000560298
2 *895:A 0.000560298
3 *894:A *895:A 0
4 *899:A *895:A 0
*RES
1 a9 *895:A 24.4786 
*END

*D_NET *19 0.00292471
*CONN
*P b1 I
*I *896:A I *D sky130_fd_sc_hd__clkbuf_1
*CAP
1 b1 0.000960455
2 *896:A 0.000960455
3 *896:A s1 0
4 *896:A s2 1.8652e-05
5 *896:A s3 0
6 *896:A *832:CLK 7.72663e-05
7 *896:A *832:D 0.000146825
8 *896:A *863:D 0.000575325
9 *896:A *905:A 9.80212e-05
10 *896:A *930:A 5.52238e-05
11 *896:A *931:A 1.40306e-05
12 *896:A *181:35 1.8461e-05
*RES
1 b1 *896:A 35.4071 
*END

*D_NET *20 0.000844297
*CONN
*P b10 I
*I *897:A I *D sky130_fd_sc_hd__clkbuf_1
*CAP
1 b10 0.000419723
2 *897:A 0.000419723
3 *897:A *872:D 4.85049e-06
4 *897:A *898:A 0
5 *897:A *913:A 0
*RES
1 b10 *897:A 21.8357 
*END

*D_NET *21 0.00105591
*CONN
*P b11 I
*I *898:A I *D sky130_fd_sc_hd__clkbuf_1
*CAP
1 b11 0.000527954
2 *898:A 0.000527954
3 *898:A *900:A 0
4 *897:A *898:A 0
*RES
1 b11 *898:A 25.1929 
*END

*D_NET *22 0.000946876
*CONN
*P b12 I
*I *900:A I *D sky130_fd_sc_hd__clkbuf_1
*CAP
1 b12 0.000462067
2 *900:A 0.000462067
3 *900:A *874:D 2.27416e-05
4 *900:A *901:A 0
5 *898:A *900:A 0
*RES
1 b12 *900:A 22.6571 
*END

*D_NET *23 0.00094414
*CONN
*P b13 I
*I *901:A I *D sky130_fd_sc_hd__clkbuf_1
*CAP
1 b13 0.000462425
2 *901:A 0.000462425
3 *901:A *875:D 1.92905e-05
4 *901:A *902:A 0
5 *900:A *901:A 0
*RES
1 b13 *901:A 22.6571 
*END

*D_NET *24 0.000845415
*CONN
*P b14 I
*I *902:A I *D sky130_fd_sc_hd__clkbuf_1
*CAP
1 b14 0.000422707
2 *902:A 0.000422707
3 *902:A *903:A 0
4 *901:A *902:A 0
*RES
1 b14 *902:A 21.8357 
*END

*D_NET *25 0.000983858
*CONN
*P b15 I
*I *903:A I *D sky130_fd_sc_hd__clkbuf_1
*CAP
1 b15 0.000442407
2 *903:A 0.000442407
3 *903:A *904:A 9.90431e-05
4 *902:A *903:A 0
*RES
1 b15 *903:A 22.2464 
*END

*D_NET *26 0.0014494
*CONN
*P b16 I
*I *904:A I *D sky130_fd_sc_hd__clkbuf_1
*CAP
1 b16 0.000675176
2 *904:A 0.000675176
3 *903:A *904:A 9.90431e-05
*RES
1 b16 *904:A 26.0679 
*END

*D_NET *27 0.00269175
*CONN
*P b2 I
*I *905:A I *D sky130_fd_sc_hd__clkbuf_1
*CAP
1 b2 0.0010038
2 *905:A 0.0010038
3 *905:A s1 0.00021442
4 *905:A *832:CLK 0.000186315
5 *905:A *832:D 5.7392e-05
6 *905:A *906:A 0
7 *905:A *181:35 4.96397e-05
8 *905:A *275:12 7.83587e-05
9 *896:A *905:A 9.80212e-05
*RES
1 b2 *905:A 31.925 
*END

*D_NET *28 0.00137941
*CONN
*P b3 I
*I *906:A I *D sky130_fd_sc_hd__clkbuf_1
*CAP
1 b3 0.000588251
2 *906:A 0.000588251
3 *906:A *864:CLK 5.49544e-05
4 *906:A *864:D 0.000125137
5 *906:A *865:D 2.2816e-05
6 *906:A *907:A 0
7 *905:A *906:A 0
*RES
1 b3 *906:A 25.1214 
*END

*D_NET *29 0.000909443
*CONN
*P b4 I
*I *907:A I *D sky130_fd_sc_hd__clkbuf_1
*CAP
1 b4 0.000454721
2 *907:A 0.000454721
3 *907:A *908:A 0
4 *906:A *907:A 0
*RES
1 b4 *907:A 22.4964 
*END

*D_NET *30 0.00084331
*CONN
*P b5 I
*I *908:A I *D sky130_fd_sc_hd__clkbuf_1
*CAP
1 b5 0.000421655
2 *908:A 0.000421655
3 *908:A *909:A 0
4 *907:A *908:A 0
*RES
1 b5 *908:A 21.8357 
*END

*D_NET *31 0.000846379
*CONN
*P b6 I
*I *909:A I *D sky130_fd_sc_hd__clkbuf_1
*CAP
1 b6 0.000413544
2 *909:A 0.000413544
3 *909:A *867:D 1.92905e-05
4 *909:A *911:A 0
5 *908:A *909:A 0
*RES
1 b6 *909:A 21.8357 
*END

*D_NET *32 0.000848403
*CONN
*P b7 I
*I *911:A I *D sky130_fd_sc_hd__clkbuf_1
*CAP
1 b7 0.000414556
2 *911:A 0.000414556
3 *911:A *868:D 1.92905e-05
4 *911:A *912:A 0
5 *909:A *911:A 0
*RES
1 b7 *911:A 21.8357 
*END

*D_NET *33 0.000847281
*CONN
*P b8 I
*I *912:A I *D sky130_fd_sc_hd__clkbuf_1
*CAP
1 b8 0.000420614
2 *912:A 0.000420614
3 *912:A *869:D 6.05161e-06
4 *912:A *913:A 0
5 *911:A *912:A 0
*RES
1 b8 *912:A 21.8357 
*END

*D_NET *34 0.00084331
*CONN
*P b9 I
*I *913:A I *D sky130_fd_sc_hd__clkbuf_1
*CAP
1 b9 0.000421655
2 *913:A 0.000421655
3 *897:A *913:A 0
4 *912:A *913:A 0
*RES
1 b9 *913:A 21.8357 
*END

*D_NET *35 0.00133073
*CONN
*P cin I
*I *914:A I *D sky130_fd_sc_hd__clkbuf_1
*CAP
1 cin 0.000606012
2 *914:A 0.000606012
3 *914:A *211:14 0.000118702
*RES
1 cin *914:A 22.7868 
*END

*D_NET *36 0.00730426
*CONN
*P clk I
*I *880:A I *D sky130_fd_sc_hd__clkbuf_16
*CAP
1 clk 0.00307573
2 *880:A 0.00307573
3 *880:A *744:B 0
4 *880:A *764:A 4.43299e-05
5 *880:A *883:A 0.000155818
6 *880:A *72:12 0
7 *880:A *180:14 0.000479239
8 *880:A *183:20 0.00014448
9 *880:A *254:34 0
10 *880:A *261:10 0.000149397
11 *880:A *263:10 0.000179536
*RES
1 clk *880:A 32.1272 
*END

*D_NET *37 0.00186166
*CONN
*P cout O
*I *921:X O *D sky130_fd_sc_hd__buf_1
*CAP
1 cout 0.000930831
2 *921:X 0.000930831
3 cout s16 0
4 *889:A cout 0
5 *890:A cout 0
*RES
1 *921:X cout 20.0272 
*END

*D_NET *38 0.00144032
*CONN
*P s1 O
*I *922:X O *D sky130_fd_sc_hd__buf_1
*CAP
1 s1 0.000431391
2 *922:X 0.000431391
3 s1 s2 0
4 s1 s3 6.8551e-05
5 s1 *863:D 8.00806e-05
6 s1 *931:A 0.00015304
7 s1 *275:12 6.14499e-05
8 *896:A s1 0
9 *905:A s1 0.00021442
*RES
1 *922:X s1 23.1962 
*END

*D_NET *39 0.001869
*CONN
*P s10 O
*I *923:X O *D sky130_fd_sc_hd__buf_1
*CAP
1 s10 0.000822898
2 *923:X 0.000822898
3 s10 s11 0
4 s10 s9 0
5 s10 *182:14 0.000111407
6 s10 *225:20 0.000111801
*RES
1 *923:X s10 20.6343 
*END

*D_NET *40 0.000722905
*CONN
*P s11 O
*I *924:X O *D sky130_fd_sc_hd__buf_1
*CAP
1 s11 0.000341586
2 *924:X 0.000341586
3 s11 s12 0
4 s11 *847:D 0
5 s11 *924:A 3.9733e-05
6 s10 s11 0
*RES
1 *924:X s11 20.5514 
*END

*D_NET *41 0.000696651
*CONN
*P s12 O
*I *925:X O *D sky130_fd_sc_hd__buf_1
*CAP
1 s12 0.000345158
2 *925:X 0.000345158
3 s12 s13 6.33508e-06
4 s12 *847:D 0
5 s11 s12 0
*RES
1 *925:X s12 21.0874 
*END

*D_NET *42 0.000687394
*CONN
*P s13 O
*I *926:X O *D sky130_fd_sc_hd__buf_1
*CAP
1 s13 0.000336223
2 *926:X 0.000336223
3 s13 s14 8.6123e-06
4 s12 s13 6.33508e-06
*RES
1 *926:X s13 20.7838 
*END

*D_NET *43 0.000914276
*CONN
*P s14 O
*I *927:X O *D sky130_fd_sc_hd__buf_1
*CAP
1 s14 0.000352277
2 *927:X 0.000352277
3 s14 s15 2.06178e-05
4 s14 *847:D 0
5 s14 *927:A 0.000101555
6 s14 *928:A 7.89362e-05
7 s13 s14 8.6123e-06
*RES
1 *927:X s14 21.7657 
*END

*D_NET *44 0.00115143
*CONN
*P s15 O
*I *928:X O *D sky130_fd_sc_hd__buf_1
*CAP
1 s15 0.000409164
2 *928:X 0.000409164
3 s15 s16 0.000112188
4 s15 *928:A 0.000200298
5 s14 s15 2.06178e-05
*RES
1 *928:X s15 23.4436 
*END

*D_NET *45 0.00126573
*CONN
*P s16 O
*I *929:X O *D sky130_fd_sc_hd__buf_1
*CAP
1 s16 0.000446217
2 *929:X 0.000446217
3 s16 *928:A 2.85321e-05
4 s16 *245:8 5.33005e-05
5 cout s16 0
6 s15 s16 0.000112188
7 *888:A s16 0.000104424
8 *920:A s16 7.4854e-05
*RES
1 *929:X s16 24.0674 
*END

*D_NET *46 0.000762389
*CONN
*P s2 O
*I *930:X O *D sky130_fd_sc_hd__buf_1
*CAP
1 s2 0.000367562
2 *930:X 0.000367562
3 s2 s3 8.6123e-06
4 s1 s2 0
5 *896:A s2 1.8652e-05
*RES
1 *930:X s2 21.0874 
*END

*D_NET *47 0.00111636
*CONN
*P s3 O
*I *931:X O *D sky130_fd_sc_hd__buf_1
*CAP
1 s3 0.000498803
2 *931:X 0.000498803
3 s3 s4 0
4 s3 *863:D 0
5 s3 *931:A 4.15914e-05
6 s1 s3 6.8551e-05
7 s2 s3 8.6123e-06
8 *896:A s3 0
*RES
1 *931:X s3 23.5871 
*END

*D_NET *48 0.000722963
*CONN
*P s4 O
*I *932:X O *D sky130_fd_sc_hd__buf_1
*CAP
1 s4 0.000357175
2 *932:X 0.000357175
3 s4 s5 8.6123e-06
4 s4 *863:CLK 0
5 s3 s4 0
*RES
1 *932:X s4 21.0874 
*END

*D_NET *49 0.000624618
*CONN
*P s5 O
*I *933:X O *D sky130_fd_sc_hd__buf_1
*CAP
1 s5 0.000305108
2 *933:X 0.000305108
3 s5 s6 0
4 s5 *863:CLK 5.7903e-06
5 s4 s5 8.6123e-06
*RES
1 *933:X s5 18.3391 
*END

*D_NET *50 0.000791107
*CONN
*P s6 O
*I *934:X O *D sky130_fd_sc_hd__buf_1
*CAP
1 s6 0.000316837
2 *934:X 0.000316837
3 s6 s7 0
4 s6 *863:CLK 0.000151843
5 s6 *181:138 5.58875e-06
6 s5 s6 0
*RES
1 *934:X s6 20.4079 
*END

*D_NET *51 0.000815806
*CONN
*P s7 O
*I *935:X O *D sky130_fd_sc_hd__buf_1
*CAP
1 s7 0.000402307
2 *935:X 0.000402307
3 s7 s8 1.1192e-05
4 s7 *847:D 0
5 s7 *181:136 0
6 s6 s7 0
*RES
1 *935:X s7 22.3017 
*END

*D_NET *52 0.000974722
*CONN
*P s8 O
*I *936:X O *D sky130_fd_sc_hd__buf_1
*CAP
1 s8 0.00037586
2 *936:X 0.00037586
3 s8 s9 0
4 s8 *847:D 0.000139583
5 s8 *935:A 7.22266e-05
6 s7 s8 1.1192e-05
*RES
1 *936:X s8 19.8569 
*END

*D_NET *53 0.000591815
*CONN
*P s9 O
*I *937:X O *D sky130_fd_sc_hd__buf_1
*CAP
1 s9 0.000281301
2 *937:X 0.000281301
3 s9 *935:A 2.92136e-05
4 s10 s9 0
5 s8 s9 0
*RES
1 *937:X s9 19.1936 
*END

*D_NET *54 0.00119397
*CONN
*I *738:A2 I *D sky130_fd_sc_hd__a21o_1
*I *749:A1 I *D sky130_fd_sc_hd__a21o_1
*I *736:Y O *D sky130_fd_sc_hd__nand2_1
*CAP
1 *738:A2 0
2 *749:A1 0.000218145
3 *736:Y 6.98053e-05
4 *54:8 0.00028795
5 *749:A1 *738:B1 1.02504e-05
6 *749:A1 *743:A 0.000158953
7 *749:A1 *745:B 5.49544e-05
8 *749:A1 *756:A 9.54798e-06
9 *749:A1 *759:A1 1.89507e-06
10 *749:A1 *65:26 0
11 *749:A1 *248:14 4.4873e-05
12 *54:8 *736:A 5.25774e-05
13 *54:8 *743:A 2.36643e-05
14 *54:8 *744:A 1.39726e-05
15 *54:8 *748:A 1.02132e-05
16 *54:8 *248:14 0.000227408
17 *54:8 *255:16 9.76435e-06
*RES
1 *736:Y *54:8 11.9071 
2 *54:8 *749:A1 22.6393 
3 *54:8 *738:A2 9.3 
*END

*D_NET *55 0.000663749
*CONN
*I *738:B1 I *D sky130_fd_sc_hd__a21o_1
*I *737:Y O *D sky130_fd_sc_hd__nor2_1
*CAP
1 *738:B1 0.000217819
2 *737:Y 0.000217819
3 *738:B1 *736:B 5.65955e-05
4 *738:B1 *738:A1 0
5 *738:B1 *743:A 1.76135e-05
6 *738:B1 *745:A 0
7 *738:B1 *177:8 0
8 *738:B1 *252:27 0.000143651
9 *749:A1 *738:B1 1.02504e-05
*RES
1 *737:Y *738:B1 31.0107 
*END

*D_NET *56 0.00201807
*CONN
*I *760:A1 I *D sky130_fd_sc_hd__o21ai_1
*I *739:B1 I *D sky130_fd_sc_hd__o21ai_1
*I *738:X O *D sky130_fd_sc_hd__a21o_1
*CAP
1 *760:A1 0.000127396
2 *739:B1 0
3 *738:X 0.000303662
4 *56:10 0.000431058
5 *760:A1 *75:10 0.000360031
6 *760:A1 *177:23 0.000259915
7 *760:A1 *180:54 1.17968e-05
8 *56:10 *62:20 4.51475e-05
9 *56:10 *75:10 5.90911e-05
10 *56:10 *177:8 0.000161999
11 *56:10 *177:23 1.90223e-05
12 *56:10 *248:14 0.00022887
13 *56:10 *254:34 1.0078e-05
*RES
1 *738:X *56:10 20.3536 
2 *56:10 *739:B1 13.8 
3 *56:10 *760:A1 18.4786 
*END

*D_NET *57 0.00620633
*CONN
*I *766:B1 I *D sky130_fd_sc_hd__a21oi_1
*I *740:B1 I *D sky130_fd_sc_hd__a31o_1
*I *739:Y O *D sky130_fd_sc_hd__o21ai_1
*CAP
1 *766:B1 0.000132889
2 *740:B1 0.000526225
3 *739:Y 0.00127902
4 *57:14 0.00193813
5 *740:B1 *740:A1 1.00887e-05
6 *740:B1 *246:24 1.41457e-05
7 *740:B1 *294:14 4.4044e-05
8 *766:B1 *734:B 7.06667e-06
9 *766:B1 *741:A1 1.00332e-05
10 *766:B1 *741:A2 5.49544e-05
11 *766:B1 *766:A1 5.37741e-06
12 *766:B1 *815:A1 0
13 *766:B1 *882:A 5.23426e-05
14 *57:14 *778:A1 0.000179476
15 *57:14 *882:A 9.20762e-05
16 *57:14 *62:20 7.4057e-06
17 *57:14 *73:12 0.000102196
18 *57:14 *75:10 0.000154049
19 *57:14 *79:10 8.17657e-06
20 *57:14 *180:54 0.000872057
21 *57:14 *256:16 0.000716578
*RES
1 *739:Y *57:14 30.3546 
2 *57:14 *740:B1 18.6301 
3 *57:14 *766:B1 19.3618 
*END

*D_NET *58 0.00035332
*CONN
*I *741:B1 I *D sky130_fd_sc_hd__a21o_1
*I *740:X O *D sky130_fd_sc_hd__a31o_1
*CAP
1 *741:B1 7.05691e-05
2 *740:X 7.05691e-05
3 *741:B1 *770:A2 0.000146755
4 *741:B1 *836:D 1.21258e-05
5 *741:B1 *284:8 5.33005e-05
*RES
1 *740:X *741:B1 20.3857 
*END

*D_NET *59 0.00122276
*CONN
*I *783:B I *D sky130_fd_sc_hd__or2_4
*I *946:A I *D sky130_fd_sc_hd__dlygate4sd1_1
*I *742:X O *D sky130_fd_sc_hd__o221a_1
*CAP
1 *783:B 0
2 *946:A 4.06298e-05
3 *742:X 0.000313046
4 *59:12 0.000353675
5 *946:A *715:B 2.59355e-05
6 *946:A *838:D 6.37237e-05
7 *59:12 *721:A1 4.72917e-05
8 *59:12 *752:B1 9.25014e-06
9 *59:12 *130:12 0.000100823
10 *59:12 *137:54 0.00026839
*RES
1 *742:X *59:12 23.05 
2 *59:12 *946:A 10.2643 
3 *59:12 *783:B 9.3 