*SPEF "ieee 1481-1999"
*DESIGN "adder"
*DATE "10:37:17 Thursday April 17, 2025"
*VENDOR "The OpenROAD Project"
*PROGRAM "OpenROAD"
*VERSION "b16bda7e82721d10566ff7e2b68f1ff0be9f9e38"
*DESIGN_FLOW "NAME_SCOPE LOCAL" "PIN_CAP NONE"
*DIVIDER /
*DELIMITER :
*BUS_DELIMITER []
*T_UNIT 1 NS
*C_UNIT 1 PF
*R_UNIT 1 OHM
*L_UNIT 1 HENRY

*NAME_MAP
*3 a1
*4 a10
*5 a11
*6 a12
*7 a13
*8 a14
*9 a15
*10 a16
*11 a2
*12 a3
*13 a4
*14 a5
*15 a6
*16 a7
*17 a8
*18 a9
*19 b1
*20 b10
*21 b11
*22 b12
*23 b13
*24 b14
*25 b15
*26 b16
*27 b2
*28 b3
*29 b4
*30 b5
*31 b6
*32 b7
*33 b8
*34 b9
*35 cin
*36 clk
*37 cout
*38 s1
*39 s10
*40 s11
*41 s12
*42 s13
*43 s14
*44 s15
*45 s16
*46 s2
*47 s3
*48 s4
*49 s5
*50 s6
*51 s7
*52 s8
*53 s9
*54 _000_
*55 _001_
*56 _002_
*57 _003_
*58 _004_
*59 _005_
*60 _006_
*61 _007_
*62 _008_
*63 _009_
*64 _010_
*65 _011_
*66 _012_
*67 _013_
*68 _014_
*69 _015_
*70 _016_
*71 _017_
*72 _018_
*73 _019_
*74 _020_
*75 _021_
*76 _022_
*77 _023_
*78 _024_
*79 _025_
*80 _026_
*81 _027_
*82 _028_
*83 _029_
*84 _030_
*85 _031_
*86 _032_
*87 _033_
*88 _034_
*89 _035_
*90 _036_
*91 _037_
*92 _038_
*93 _039_
*94 _040_
*95 _041_
*96 _042_
*97 _043_
*98 _044_
*99 _045_
*100 _046_
*101 _047_
*102 _048_
*103 _049_
*104 _050_
*105 _051_
*106 _052_
*107 _053_
*108 _054_
*109 _055_
*110 _056_
*111 _057_
*112 _058_
*113 _059_
*114 _060_
*115 _061_
*116 _062_
*117 clknet_0_clk
*118 clknet_2_0__leaf_clk
*119 clknet_2_1__leaf_clk
*120 clknet_2_2__leaf_clk
*121 clknet_2_3__leaf_clk
*122 net1
*123 net10
*124 net11
*125 net12
*126 net13
*127 net14
*128 net15
*129 net16
*130 net17
*131 net18
*132 net19
*133 net2
*134 net20
*135 net21
*136 net22
*137 net23
*138 net24
*139 net25
*140 net26
*141 net27
*142 net28
*143 net29
*144 net3
*145 net30
*146 net31
*147 net32
*148 net33
*149 net34
*150 net35
*151 net36
*152 net37
*153 net38
*154 net39
*155 net4
*156 net40
*157 net41
*158 net42
*159 net43
*160 net44
*161 net45
*162 net46
*163 net47
*164 net48
*165 net49
*166 net5
*167 net50
*168 net51
*169 net6
*170 net7
*171 net8
*172 net9
*173 x10\.A
*174 x10\.B
*175 x12\.A
*176 x12\.B
*177 x14\.A
*178 x14\.B
*179 x16\.A
*180 x16\.B
*181 x18\.A
*182 x18\.B
*183 x2\.A
*184 x2\.B
*185 x20\.A
*186 x20\.B
*187 x22\.A
*188 x22\.B
*189 x24\.A
*190 x24\.B
*191 x26\.A
*192 x26\.B
*193 x28\.A
*194 x28\.B
*195 x30\.A
*196 x30\.B
*197 x32\.A
*198 x32\.B
*199 x4\.A
*200 x4\.B
*201 x47\.c
*202 x6\.A
*203 x6\.B
*204 x62\.C
*205 x63\.S
*206 x64\.S
*207 x65\.S
*208 x66\.S
*209 x67\.S
*210 x68\.S
*211 x69\.S
*212 x70\.S
*213 x71\.S
*214 x72\.S
*215 x73\.S
*216 x74\.S
*217 x75\.S
*218 x76\.S
*219 x77\.S
*220 x78\.S
*221 x8\.A
*222 x8\.B
*223 FILLER_0_0_107
*224 FILLER_0_0_111
*225 FILLER_0_0_116
*226 FILLER_0_0_29
*227 FILLER_0_0_49
*228 FILLER_0_0_57
*229 FILLER_0_0_62
*230 FILLER_0_0_71
*231 FILLER_0_0_80
*232 FILLER_0_0_85
*233 FILLER_0_0_89
*234 FILLER_0_0_98
*235 FILLER_0_10_106
*236 FILLER_0_10_123
*237 FILLER_0_10_3
*238 FILLER_0_10_45
*239 FILLER_0_10_57
*240 FILLER_0_10_83
*241 FILLER_0_11_110
*242 FILLER_0_11_119
*243 FILLER_0_11_123
*244 FILLER_0_11_15
*245 FILLER_0_11_57
*246 FILLER_0_11_63
*247 FILLER_0_11_84
*248 FILLER_0_11_9
*249 FILLER_0_11_97
*250 FILLER_0_12_110
*251 FILLER_0_12_122
*252 FILLER_0_12_33
*253 FILLER_0_12_38
*254 FILLER_0_12_55
*255 FILLER_0_12_63
*256 FILLER_0_12_82
*257 FILLER_0_12_85
*258 FILLER_0_13_109
*259 FILLER_0_13_119
*260 FILLER_0_13_123
*261 FILLER_0_13_16
*262 FILLER_0_13_3
*263 FILLER_0_13_35
*264 FILLER_0_13_39
*265 FILLER_0_13_57
*266 FILLER_0_13_69
*267 FILLER_0_13_75
*268 FILLER_0_13_82
*269 FILLER_0_13_9
*270 FILLER_0_13_98
*271 FILLER_0_14_105
*272 FILLER_0_14_111
*273 FILLER_0_14_123
*274 FILLER_0_14_13
*275 FILLER_0_14_22
*276 FILLER_0_14_29
*277 FILLER_0_14_37
*278 FILLER_0_14_55
*279 FILLER_0_14_67
*280 FILLER_0_14_79
*281 FILLER_0_14_83
*282 FILLER_0_14_85
*283 FILLER_0_14_9
*284 FILLER_0_14_97
*285 FILLER_0_15_113
*286 FILLER_0_15_20
*287 FILLER_0_15_28
*288 FILLER_0_15_52
*289 FILLER_0_15_73
*290 FILLER_0_15_85
*291 FILLER_0_15_95
*292 FILLER_0_16_122
*293 FILLER_0_16_27
*294 FILLER_0_16_29
*295 FILLER_0_16_3
*296 FILLER_0_16_41
*297 FILLER_0_16_53
*298 FILLER_0_16_65
*299 FILLER_0_16_83
*300 FILLER_0_16_85
*301 FILLER_0_17_111
*302 FILLER_0_17_123
*303 FILLER_0_17_40
*304 FILLER_0_17_52
*305 FILLER_0_17_57
*306 FILLER_0_17_6
*307 FILLER_0_17_93
*308 FILLER_0_18_101
*309 FILLER_0_18_123
*310 FILLER_0_18_26
*311 FILLER_0_18_29
*312 FILLER_0_18_46
*313 FILLER_0_18_58
*314 FILLER_0_18_70
*315 FILLER_0_18_9
*316 FILLER_0_19_113
*317 FILLER_0_19_36
*318 FILLER_0_19_73
*319 FILLER_0_19_93
*320 FILLER_0_1_102
*321 FILLER_0_1_110
*322 FILLER_0_1_113
*323 FILLER_0_1_121
*324 FILLER_0_1_20
*325 FILLER_0_1_3
*326 FILLER_0_1_38
*327 FILLER_0_1_57
*328 FILLER_0_1_61
*329 FILLER_0_1_78
*330 FILLER_0_1_90
*331 FILLER_0_20_119
*332 FILLER_0_20_20
*333 FILLER_0_20_26
*334 FILLER_0_20_29
*335 FILLER_0_20_3
*336 FILLER_0_20_35
*337 FILLER_0_20_44
*338 FILLER_0_20_53
*339 FILLER_0_20_57
*340 FILLER_0_20_62
*341 FILLER_0_20_71
*342 FILLER_0_20_80
*343 FILLER_0_20_85
*344 FILLER_0_20_89
*345 FILLER_0_2_101
*346 FILLER_0_2_120
*347 FILLER_0_2_27
*348 FILLER_0_2_32
*349 FILLER_0_2_44
*350 FILLER_0_2_64
*351 FILLER_0_2_9
*352 FILLER_0_3_110
*353 FILLER_0_3_113
*354 FILLER_0_3_121
*355 FILLER_0_3_22
*356 FILLER_0_3_34
*357 FILLER_0_3_46
*358 FILLER_0_3_54
*359 FILLER_0_3_57
*360 FILLER_0_3_74
*361 FILLER_0_3_86
*362 FILLER_0_3_98
*363 FILLER_0_4_112
*364 FILLER_0_4_21
*365 FILLER_0_4_27
*366 FILLER_0_4_3
*367 FILLER_0_4_53
*368 FILLER_0_4_65
*369 FILLER_0_4_77
*370 FILLER_0_4_83
*371 FILLER_0_4_85
*372 FILLER_0_4_93
*373 FILLER_0_5_100
*374 FILLER_0_5_113
*375 FILLER_0_5_121
*376 FILLER_0_5_29
*377 FILLER_0_5_76
*378 FILLER_0_5_88
*379 FILLER_0_5_9
*380 FILLER_0_6_120
*381 FILLER_0_6_29
*382 FILLER_0_6_6
*383 FILLER_0_6_83
*384 FILLER_0_6_85
*385 FILLER_0_7_116
*386 FILLER_0_7_19
*387 FILLER_0_7_31
*388 FILLER_0_7_39
*389 FILLER_0_7_45
*390 FILLER_0_7_50
*391 FILLER_0_7_67
*392 FILLER_0_7_79
*393 FILLER_0_8_123
*394 FILLER_0_8_19
*395 FILLER_0_8_37
*396 FILLER_0_8_49
*397 FILLER_0_8_73
*398 FILLER_0_8_81
*399 FILLER_0_8_85
*400 FILLER_0_8_89
*401 FILLER_0_9_106
*402 FILLER_0_9_113
*403 FILLER_0_9_121
*404 FILLER_0_9_21
*405 FILLER_0_9_33
*406 FILLER_0_9_45
*407 FILLER_0_9_53
*408 FILLER_0_9_57
*409 FILLER_0_9_69
*410 FILLER_0_9_80
*411 FILLER_0_9_9
*412 FILLER_0_9_91
*413 PHY_EDGE_ROW_0_Left_21
*414 PHY_EDGE_ROW_0_Right_0
*415 PHY_EDGE_ROW_10_Left_31
*416 PHY_EDGE_ROW_10_Right_10
*417 PHY_EDGE_ROW_11_Left_32
*418 PHY_EDGE_ROW_11_Right_11
*419 PHY_EDGE_ROW_12_Left_33
*420 PHY_EDGE_ROW_12_Right_12
*421 PHY_EDGE_ROW_13_Left_34
*422 PHY_EDGE_ROW_13_Right_13
*423 PHY_EDGE_ROW_14_Left_35
*424 PHY_EDGE_ROW_14_Right_14
*425 PHY_EDGE_ROW_15_Left_36
*426 PHY_EDGE_ROW_15_Right_15
*427 PHY_EDGE_ROW_16_Left_37
*428 PHY_EDGE_ROW_16_Right_16
*429 PHY_EDGE_ROW_17_Left_38
*430 PHY_EDGE_ROW_17_Right_17
*431 PHY_EDGE_ROW_18_Left_39
*432 PHY_EDGE_ROW_18_Right_18
*433 PHY_EDGE_ROW_19_Left_40
*434 PHY_EDGE_ROW_19_Right_19
*435 PHY_EDGE_ROW_1_Left_22
*436 PHY_EDGE_ROW_1_Right_1
*437 PHY_EDGE_ROW_20_Left_41
*438 PHY_EDGE_ROW_20_Right_20
*439 PHY_EDGE_ROW_2_Left_23
*440 PHY_EDGE_ROW_2_Right_2
*441 PHY_EDGE_ROW_3_Left_24
*442 PHY_EDGE_ROW_3_Right_3
*443 PHY_EDGE_ROW_4_Left_25
*444 PHY_EDGE_ROW_4_Right_4
*445 PHY_EDGE_ROW_5_Left_26
*446 PHY_EDGE_ROW_5_Right_5
*447 PHY_EDGE_ROW_6_Left_27
*448 PHY_EDGE_ROW_6_Right_6
*449 PHY_EDGE_ROW_7_Left_28
*450 PHY_EDGE_ROW_7_Right_7
*451 PHY_EDGE_ROW_8_Left_29
*452 PHY_EDGE_ROW_8_Right_8
*453 PHY_EDGE_ROW_9_Left_30
*454 PHY_EDGE_ROW_9_Right_9
*455 TAP_TAPCELL_ROW_0_42
*456 TAP_TAPCELL_ROW_0_43
*457 TAP_TAPCELL_ROW_0_44
*458 TAP_TAPCELL_ROW_0_45
*459 TAP_TAPCELL_ROW_10_64
*460 TAP_TAPCELL_ROW_10_65
*461 TAP_TAPCELL_ROW_11_66
*462 TAP_TAPCELL_ROW_11_67
*463 TAP_TAPCELL_ROW_12_68
*464 TAP_TAPCELL_ROW_12_69
*465 TAP_TAPCELL_ROW_13_70
*466 TAP_TAPCELL_ROW_13_71
*467 TAP_TAPCELL_ROW_14_72
*468 TAP_TAPCELL_ROW_14_73
*469 TAP_TAPCELL_ROW_15_74
*470 TAP_TAPCELL_ROW_15_75
*471 TAP_TAPCELL_ROW_16_76
*472 TAP_TAPCELL_ROW_16_77
*473 TAP_TAPCELL_ROW_17_78
*474 TAP_TAPCELL_ROW_17_79
*475 TAP_TAPCELL_ROW_18_80
*476 TAP_TAPCELL_ROW_18_81
*477 TAP_TAPCELL_ROW_19_82
*478 TAP_TAPCELL_ROW_19_83
*479 TAP_TAPCELL_ROW_1_46
*480 TAP_TAPCELL_ROW_1_47
*481 TAP_TAPCELL_ROW_20_84
*482 TAP_TAPCELL_ROW_20_85
*483 TAP_TAPCELL_ROW_20_86
*484 TAP_TAPCELL_ROW_20_87
*485 TAP_TAPCELL_ROW_2_48
*486 TAP_TAPCELL_ROW_2_49
*487 TAP_TAPCELL_ROW_3_50
*488 TAP_TAPCELL_ROW_3_51
*489 TAP_TAPCELL_ROW_4_52
*490 TAP_TAPCELL_ROW_4_53
*491 TAP_TAPCELL_ROW_5_54
*492 TAP_TAPCELL_ROW_5_55
*493 TAP_TAPCELL_ROW_6_56
*494 TAP_TAPCELL_ROW_6_57
*495 TAP_TAPCELL_ROW_7_58
*496 TAP_TAPCELL_ROW_7_59
*497 TAP_TAPCELL_ROW_8_60
*498 TAP_TAPCELL_ROW_8_61
*499 TAP_TAPCELL_ROW_9_62
*500 TAP_TAPCELL_ROW_9_63
*501 _063_
*502 _064_
*503 _065_
*504 _066_
*505 _067_
*506 _068_
*507 _069_
*508 _070_
*509 _071_
*510 _072_
*511 _073_
*512 _074_
*513 _075_
*514 _076_
*515 _077_
*516 _078_
*517 _079_
*518 _080_
*519 _081_
*520 _082_
*521 _083_
*522 _084_
*523 _085_
*524 _086_
*525 _087_
*526 _088_
*527 _089_
*528 _090_
*529 _091_
*530 _092_
*531 _093_
*532 _094_
*533 _095_
*534 _096_
*535 _097_
*536 _098_
*537 _099_
*538 _100_
*539 _101_
*540 _102_
*541 _103_
*542 _104_
*543 _105_
*544 _106_
*545 _107_
*546 _108_
*547 _109_
*548 _110_
*549 _111_
*550 _112_
*551 _113_
*552 _114_
*553 _115_
*554 _116_
*555 _117_
*556 _118_
*557 _119_
*558 _120_
*559 _121_
*560 _122_
*561 _123_
*562 _124_
*563 _125_
*564 _126_
*565 _127_
*566 _128_
*567 _129_
*568 _130_
*569 _131_
*570 _132_
*571 _133_
*572 _134_
*573 _135_
*574 _136_
*575 _137_
*576 _138_
*577 _139_
*578 _140_
*579 _141_
*580 _142_
*581 _143_
*582 _144_
*583 _145_
*584 _146_
*585 _147_
*586 _148_
*587 _149_
*588 _150_
*589 _151_
*590 _152_
*591 _153_
*592 _154_
*593 _155_
*594 _156_
*595 _157_
*596 _158_
*597 _159_
*598 _160_
*599 _161_
*600 _162_
*601 _163_
*602 _164_
*603 _165_
*604 _166_
*605 _167_
*606 _168_
*607 _169_
*608 _170_
*609 _171_
*610 _172_
*611 _173_
*612 _174_
*613 _175_
*614 _176_
*615 _177_
*616 _178_
*617 _179_
*618 _180_
*619 _181_
*620 _182_
*621 _183_
*622 _184_
*623 _185_
*624 _186_
*625 _187_
*626 _188_
*627 _189_
*628 _190_
*629 _191_
*630 _192_
*631 clkbuf_0_clk
*632 clkbuf_2_0__f_clk
*633 clkbuf_2_1__f_clk
*634 clkbuf_2_2__f_clk
*635 clkbuf_2_3__f_clk
*636 clkload0
*637 clkload1
*638 clkload2
*639 input1
*640 input10
*641 input11
*642 input12
*643 input13
*644 input14
*645 input15
*646 input16
*647 input17
*648 input18
*649 input19
*650 input2
*651 input20
*652 input21
*653 input22
*654 input23
*655 input24
*656 input25
*657 input26
*658 input27
*659 input28
*660 input29
*661 input3
*662 input30
*663 input31
*664 input32
*665 input33
*666 input4
*667 input5
*668 input6
*669 input7
*670 input8
*671 input9
*672 output34
*673 output35
*674 output36
*675 output37
*676 output38
*677 output39
*678 output40
*679 output41
*680 output42
*681 output43
*682 output44
*683 output45
*684 output46
*685 output47
*686 output48
*687 output49
*688 output50
*689 rebuffer1

*PORTS
a1 I
a10 I
a11 I
a12 I
a13 I
a14 I
a15 I
a16 I
a2 I
a3 I
a4 I
a5 I
a6 I
a7 I
a8 I
a9 I
b1 I
b10 I
b11 I
b12 I
b13 I
b14 I
b15 I
b16 I
b2 I
b3 I
b4 I
b5 I
b6 I
b7 I
b8 I
b9 I
cin I
clk I
cout O
s1 O
s10 O
s11 O
s12 O
s13 O
s14 O
s15 O
s16 O
s2 O
s3 O
s4 O
s5 O
s6 O
s7 O
s8 O
s9 O

*D_NET *3 0.00231077
*CONN
*P a1 I
*I *639:A I *D sky130_fd_sc_hd__clkbuf_1
*CAP
1 a1 0.000845364
2 *639:A 0
3 *3:11 0.000845364
4 *3:11 *671:A 5.3304e-05
5 *3:11 *679:A 8.59313e-05
6 *3:11 *44:10 0.000462314
7 *3:11 *172:8 1.84917e-05
*RES
1 a1 *3:11 34.3264 
2 *3:11 *639:A 23 
*END

*D_NET *4 0.00116559
*CONN
*P a10 I
*I *650:A I *D sky130_fd_sc_hd__clkbuf_1
*CAP
1 a10 0.000563604
2 *650:A 0
3 *4:9 0.000563604
4 *4:9 *5:9 0
5 *4:9 *18:9 0
6 *4:9 *133:8 3.22051e-05
7 *4:9 *144:10 6.17437e-06
*RES
1 a10 *4:9 27.035 
2 *4:9 *650:A 23 
*END

*D_NET *5 0.00118834
*CONN
*P a11 I
*I *661:A I *D sky130_fd_sc_hd__clkbuf_1
*CAP
1 a11 0.000578771
2 *661:A 0
3 *5:9 0.000578771
4 *5:9 *666:A 0
5 *5:9 *144:10 3.07986e-05
6 *4:9 *5:9 0
*RES
1 a11 *5:9 27.035 
2 *5:9 *661:A 23 
*END

*D_NET *6 0.00112125
*CONN
*P a12 I
*I *666:A I *D sky130_fd_sc_hd__clkbuf_1
*CAP
1 a12 0.00049959
2 *666:A 0.00049959
3 *666:A *613:CLK 9.25303e-05
4 *666:A *7:9 0
5 *666:A *155:8 2.95423e-05
6 *5:9 *666:A 0
*RES
1 a12 *666:A 49.0821 
*END

*D_NET *7 0.00195321
*CONN
*P a13 I
*I *667:A I *D sky130_fd_sc_hd__clkbuf_1
*CAP
1 a13 0.000651049
2 *667:A 0
3 *7:9 0.000651049
4 *7:9 *613:D 0.000548305
5 *7:9 *8:15 0.000102804
6 *666:A *7:9 0
*RES
1 a13 *7:9 31.3229 
2 *7:9 *667:A 23 
*END

*D_NET *8 0.00141176
*CONN
*P a14 I
*I *668:A I *D sky130_fd_sc_hd__clkbuf_1
*CAP
1 a14 0.000617386
2 *668:A 0
3 *8:15 0.000617386
4 *8:15 *613:D 7.4183e-05
5 *8:15 *669:A 0
6 *7:9 *8:15 0.000102804
*RES
1 a14 *8:15 28.8993 
2 *8:15 *668:A 23 
*END

*D_NET *9 0.00111376
*CONN
*P a15 I
*I *669:A I *D sky130_fd_sc_hd__clkbuf_1
*CAP
1 a15 0.000556881
2 *669:A 0.000556881
3 *669:A *10:9 0
4 *8:15 *669:A 0
*RES
1 a15 *669:A 49.5586 
*END

*D_NET *10 0.00155315
*CONN
*P a16 I
*I *670:A I *D sky130_fd_sc_hd__clkbuf_1
*CAP
1 a16 0.000776577
2 *670:A 0
3 *10:9 0.000776577
4 *10:9 *171:10 0
5 *669:A *10:9 0
*RES
1 a16 *10:9 31.4057 
2 *10:9 *670:A 23 
*END

*D_NET *11 0.00122204
*CONN
*P a2 I
*I *671:A I *D sky130_fd_sc_hd__clkbuf_1
*CAP
1 a2 0.000511331
2 *671:A 0.000511331
3 *671:A *12:11 0
4 *671:A *44:10 0
5 *671:A *45:10 0.000146069
6 *3:11 *671:A 5.3304e-05
*RES
1 a2 *671:A 49.0821 
*END

*D_NET *12 0.00132849
*CONN
*P a3 I
*I *640:A I *D sky130_fd_sc_hd__clkbuf_1
*CAP
1 a3 0.00061305
2 *640:A 0
3 *12:11 0.00061305
4 *12:11 *679:A 0.000102389
5 *12:11 *13:9 0
6 *12:11 *37:10 0
7 *12:11 *45:10 0
8 *671:A *12:11 0
*RES
1 a3 *12:11 27.18 
2 *12:11 *640:A 23 
*END

*D_NET *13 0.00124599
*CONN
*P a4 I
*I *641:A I *D sky130_fd_sc_hd__clkbuf_1
*CAP
1 a4 0.000549584
2 *641:A 0
3 *13:9 0.000549584
4 *13:9 *642:A 0
5 *13:9 *37:10 0
6 *13:9 *149:14 0.000146822
7 *12:11 *13:9 0
*RES
1 a4 *13:9 27.035 
2 *13:9 *641:A 23 
*END

*D_NET *14 0.0010742
*CONN
*P a5 I
*I *642:A I *D sky130_fd_sc_hd__clkbuf_1
*CAP
1 a5 0.000507959
2 *642:A 0.000507959
3 *642:A *15:9 0
4 *642:A *149:14 5.82853e-05
5 *13:9 *642:A 0
*RES
1 a5 *642:A 49.0821 
*END

*D_NET *15 0.00121521
*CONN
*P a6 I
*I *643:A I *D sky130_fd_sc_hd__clkbuf_1
*CAP
1 a6 0.000533776
2 *643:A 0
3 *15:9 0.000533776
4 *15:9 *16:13 0
5 *15:9 *149:14 0.000147656
6 *642:A *15:9 0
*RES
1 a6 *15:9 27.035 
2 *15:9 *643:A 23 
*END

*D_NET *16 0.00119917
*CONN
*P a7 I
*I *644:A I *D sky130_fd_sc_hd__clkbuf_1
*CAP
1 a7 0.000548186
2 *644:A 0
3 *16:13 0.000548186
4 *16:13 *645:A 0
5 *16:13 *149:14 0.000102803
6 *15:9 *16:13 0
*RES
1 a7 *16:13 27.325 
2 *16:13 *644:A 23 
*END

*D_NET *17 0.00106927
*CONN
*P a8 I
*I *645:A I *D sky130_fd_sc_hd__clkbuf_1
*CAP
1 a8 0.000505493
2 *645:A 0.000505493
3 *645:A *18:9 0
4 *645:A *149:14 5.82853e-05
5 *16:13 *645:A 0
*RES
1 a8 *645:A 49.0821 
*END

*D_NET *18 0.00121521
*CONN
*P a9 I
*I *646:A I *D sky130_fd_sc_hd__clkbuf_1
*CAP
1 a9 0.000533776
2 *646:A 0
3 *18:9 0.000533776
4 *18:9 *149:14 0.000147656
5 *645:A *18:9 0
6 *4:9 *18:9 0
*RES
1 a9 *18:9 27.035 
2 *18:9 *646:A 23 
*END

*D_NET *19 0.00374028
*CONN
*P b1 I
*I *647:A I *D sky130_fd_sc_hd__clkbuf_1
*CAP
1 b1 0.00152843
2 *647:A 0
3 *19:13 0.00152843
4 *19:13 s4 3.26241e-05
5 *19:13 *616:D 0.000215589
6 *19:13 *656:A 0
7 *19:13 *683:A 5.3304e-05
8 *19:13 *47:10 0.000178766
9 *19:13 *130:14 0.000203131
10 *19:13 *139:8 0
*RES
1 b1 *19:13 47.625 
2 *19:13 *647:A 23 
*END

*D_NET *20 0.00100823
*CONN
*P b10 I
*I *648:A I *D sky130_fd_sc_hd__clkbuf_1
*CAP
1 b10 0.000494944
2 *648:A 0.000494944
3 *648:A *649:A 0
4 *648:A *664:A 0
5 *648:A *131:10 1.83408e-05
*RES
1 b10 *648:A 48.2743 
*END

*D_NET *21 0.00113845
*CONN
*P b11 I
*I *649:A I *D sky130_fd_sc_hd__clkbuf_1
*CAP
1 b11 0.000569226
2 *649:A 0.000569226
3 *649:A *651:A 0
4 *648:A *649:A 0
*RES
1 b11 *649:A 49.5171 
*END

*D_NET *22 0.00100427
*CONN
*P b12 I
*I *651:A I *D sky130_fd_sc_hd__clkbuf_1
*CAP
1 b12 0.000502134
2 *651:A 0.000502134
3 *651:A *652:A 0
4 *649:A *651:A 0
*RES
1 b12 *651:A 48.2743 
*END

*D_NET *23 0.00100427
*CONN
*P b13 I
*I *652:A I *D sky130_fd_sc_hd__clkbuf_1
*CAP
1 b13 0.000502134
2 *652:A 0.000502134
3 *652:A *653:A 0
4 *651:A *652:A 0
*RES
1 b13 *652:A 48.2743 
*END

*D_NET *24 0.00101248
*CONN
*P b14 I
*I *653:A I *D sky130_fd_sc_hd__clkbuf_1
*CAP
1 b14 0.000485553
2 *653:A 0.000485553
3 *653:A *654:A 0
4 *653:A *136:8 1.83408e-05
5 *653:A *138:10 2.30292e-05
6 *652:A *653:A 0
*RES
1 b14 *653:A 48.2743 
*END

*D_NET *25 0.00104923
*CONN
*P b15 I
*I *654:A I *D sky130_fd_sc_hd__clkbuf_1
*CAP
1 b15 0.000475373
2 *654:A 0.000475373
3 *654:A *26:11 9.84851e-05
4 *653:A *654:A 0
*RES
1 b15 *654:A 47.7979 
*END

*D_NET *26 0.00144926
*CONN
*P b16 I
*I *655:A I *D sky130_fd_sc_hd__clkbuf_1
*CAP
1 b16 0.000675386
2 *655:A 0
3 *26:11 0.000675386
4 *654:A *26:11 9.84851e-05
*RES
1 b16 *26:11 28.7543 
2 *26:11 *655:A 23 
*END

*D_NET *27 0.000936917
*CONN
*P b2 I
*I *656:A I *D sky130_fd_sc_hd__clkbuf_1
*CAP
1 b2 0.000468459
2 *656:A 0.000468459
3 *656:A *28:11 0
4 *19:13 *656:A 0
*RES
1 b2 *656:A 47.3214 
*END

*D_NET *28 0.00141998
*CONN
*P b3 I
*I *657:A I *D sky130_fd_sc_hd__clkbuf_1
*CAP
1 b3 0.000583127
2 *657:A 0
3 *28:11 0.000583127
4 *28:11 s1 0
5 *28:11 *29:13 0.000185428
6 *28:11 *140:10 1.32939e-05
7 *28:11 *159:8 5.50049e-05
8 *656:A *28:11 0
*RES
1 b3 *28:11 27.325 
2 *28:11 *657:A 23 
*END

*D_NET *29 0.00183954
*CONN
*P b4 I
*I *658:A I *D sky130_fd_sc_hd__clkbuf_1
*CAP
1 b4 0.000565701
2 *658:A 0
3 *29:13 0.000565701
4 *29:13 s1 0.000172596
5 *29:13 *659:A 0
6 *29:13 *681:A 6.25829e-05
7 *29:13 *140:10 5.37348e-06
8 *29:13 *141:10 0.000142807
9 *29:13 *159:8 0.000139347
10 *28:11 *29:13 0.000185428
*RES
1 b4 *29:13 30.3286 
2 *29:13 *658:A 23 
*END

*D_NET *30 0.000968145
*CONN
*P b5 I
*I *659:A I *D sky130_fd_sc_hd__clkbuf_1
*CAP
1 b5 0.000454254
2 *659:A 0.000454254
3 *659:A *618:CLK 5.50049e-05
4 *659:A *31:11 0
5 *659:A *206:12 4.6318e-06
6 *29:13 *659:A 0
*RES
1 b5 *659:A 47.3214 
*END

*D_NET *31 0.00181564
*CONN
*P b6 I
*I *660:A I *D sky130_fd_sc_hd__clkbuf_1
*CAP
1 b6 0.000795687
2 *660:A 0
3 *31:11 0.000795687
4 *31:11 *662:A 5.50106e-05
5 *31:11 *143:10 1.41244e-05
6 *31:11 *145:10 0.000145261
7 *31:11 *174:12 9.87385e-06
8 *659:A *31:11 0
*RES
1 b6 *31:11 31.1364 
2 *31:11 *660:A 23 
*END

*D_NET *32 0.000952923
*CONN
*P b7 I
*I *662:A I *D sky130_fd_sc_hd__clkbuf_1
*CAP
1 b7 0.000439216
2 *662:A 0.000439216
3 *662:A *663:A 0
4 *662:A *174:12 1.94812e-05
5 *31:11 *662:A 5.50106e-05
*RES
1 b7 *662:A 47.3214 
*END

*D_NET *33 0.000940377
*CONN
*P b8 I
*I *663:A I *D sky130_fd_sc_hd__clkbuf_1
*CAP
1 b8 0.000438267
2 *663:A 0.000438267
3 *663:A *664:A 0
4 *663:A *145:10 6.38433e-05
5 *662:A *663:A 0
*RES
1 b8 *663:A 47.3214 
*END

*D_NET *34 0.00100427
*CONN
*P b9 I
*I *664:A I *D sky130_fd_sc_hd__clkbuf_1
*CAP
1 b9 0.000502134
2 *664:A 0.000502134
3 *648:A *664:A 0
4 *663:A *664:A 0
*RES
1 b9 *664:A 48.2743 
*END

*D_NET *35 0.0011698
*CONN
*P cin I
*I *665:A I *D sky130_fd_sc_hd__clkbuf_1
*CAP
1 cin 0.000431188
2 *665:A 0
3 *35:11 0.000431188
4 *35:11 *578:A1 3.65023e-05
5 *35:11 *195:8 0.000179912
6 *35:11 *196:21 9.10112e-05
*RES
1 cin *35:11 29.6274 
2 *35:11 *665:A 23 
*END

*D_NET *36 0.00707262
*CONN
*P clk I
*I *631:A I *D sky130_fd_sc_hd__clkbuf_16
*CAP
1 clk 0.00330438
2 *631:A 0
3 *36:21 0.00330438
4 *36:21 *62:10 0.000112455
5 *36:21 *117:33 3.65176e-05
6 *36:21 *186:18 0.000314879
*RES
1 clk *36:21 35.5306 
2 *36:21 *631:A 38 
*END

*D_NET *37 0.00193697
*CONN
*P cout O
*I *672:X O *D sky130_fd_sc_hd__buf_1
*CAP
1 cout 0.000657796
2 *672:X 0.000303573
3 *37:10 0.00096137
4 cout s16 0
5 *37:10 *679:A 1.42306e-05
6 *12:11 *37:10 0
7 *13:9 *37:10 0
*RES
1 *672:X *37:10 43.8725 
2 *37:10 cout 10.0459 
*END

*D_NET *38 0.00497382
*CONN
*P s1 O
*I *673:X O *D sky130_fd_sc_hd__buf_1
*CAP
1 s1 0.00134708
2 *673:X 0.000494857
3 *38:8 0.00184194
4 s1 s2 0
5 s1 *681:A 0.00069739
6 s1 *130:14 9.27279e-06
7 s1 *130:24 0.000336045
8 s1 *140:10 0
9 s1 *207:14 0
10 *38:8 *162:10 7.46322e-05
11 *28:11 s1 0
12 *29:13 s1 0.000172596
*RES
1 *673:X *38:8 43.8621 
2 *38:8 s1 28.6784 
*END

*D_NET *39 0.00062811
*CONN
*P s10 O
*I *674:X O *D sky130_fd_sc_hd__buf_1
*CAP
1 s10 0.000314055
2 *674:X 0.000314055
3 s10 s11 0
4 s10 s9 0
5 s10 *200:14 0
*RES
1 *674:X s10 48.3188 
*END

*D_NET *40 0.000771205
*CONN
*P s11 O
*I *675:X O *D sky130_fd_sc_hd__buf_1
*CAP
1 s11 0.000385603
2 *675:X 0.000385603
3 s11 s12 0
4 s11 *54:10 0
5 s10 s11 0
*RES
1 *675:X s11 48.7451 
*END

*D_NET *41 0.00062307
*CONN
*P s12 O
*I *676:X O *D sky130_fd_sc_hd__buf_1
*CAP
1 s12 0.000311535
2 *676:X 0.000311535
3 s12 s13 0
4 s12 *201:8 0
5 s11 s12 0
*RES
1 *676:X s12 48.3188 
*END

*D_NET *42 0.000741892
*CONN
*P s13 O
*I *677:X O *D sky130_fd_sc_hd__buf_1
*CAP
1 s13 0.000109732
2 *677:X 0.000258235
3 *42:10 0.000367968
4 s13 s14 5.95675e-06
5 s13 *43:16 0
6 *42:10 *43:16 0
7 *42:10 *154:18 0
8 s12 s13 0
*RES
1 *677:X *42:10 42.0289 
2 *42:10 s13 8.4816 
*END

*D_NET *43 0.000729351
*CONN
*P s14 O
*I *678:X O *D sky130_fd_sc_hd__buf_1
*CAP
1 s14 4.35807e-05
2 *678:X 0.000311588
3 *43:16 0.000355168
4 s14 s15 0
5 *43:16 s15 8.14539e-06
6 *43:16 *119:114 4.91172e-06
7 s13 s14 5.95675e-06
8 s13 *43:16 0
9 *42:10 *43:16 0
*RES
1 *678:X *43:16 49.9587 
2 *43:16 s14 0.199733 
*END

*D_NET *44 0.00139505
*CONN
*P s15 O
*I *679:X O *D sky130_fd_sc_hd__buf_1
*CAP
1 s15 8.74211e-05
2 *679:X 0.000374875
3 *44:10 0.000462296
4 s15 s16 0
5 *44:10 *45:10 0
6 s14 s15 0
7 *671:A *44:10 0
8 *3:11 *44:10 0.000462314
9 *43:16 s15 8.14539e-06
*RES
1 *679:X *44:10 46.0475 
2 *44:10 s15 8.32853 
*END

*D_NET *45 0.00185269
*CONN
*P s16 O
*I *680:X O *D sky130_fd_sc_hd__buf_1
*CAP
1 s16 0.000332008
2 *680:X 0.000323398
3 *45:10 0.000655406
4 *45:10 *119:114 9.8635e-05
5 *45:10 *172:14 0.000297179
6 cout s16 0
7 s15 s16 0
8 *671:A *45:10 0.000146069
9 *12:11 *45:10 0
10 *44:10 *45:10 0
*RES
1 *680:X *45:10 45.2811 
2 *45:10 s16 8.9296 
*END

*D_NET *46 0.00323397
*CONN
*P s2 O
*I *681:X O *D sky130_fd_sc_hd__buf_1
*CAP
1 s2 0.000923874
2 *681:X 0.000342514
3 *46:10 0.00126639
4 s2 s3 0
5 *46:10 *681:A 0.000573109
6 *46:10 *118:98 0
7 *46:10 *130:14 8.50366e-05
8 *46:10 *141:10 4.3053e-05
9 s1 s2 0
*RES
1 *681:X *46:10 45.9854 
2 *46:10 s2 10.5835 
*END

*D_NET *47 0.00109109
*CONN
*P s3 O
*I *682:X O *D sky130_fd_sc_hd__buf_1
*CAP
1 s3 0.000140883
2 *682:X 0.000296512
3 *47:10 0.000437395
4 s3 s4 8.14539e-06
5 *47:10 *683:A 2.93845e-05
6 *47:10 *139:8 0
7 s2 s3 0
8 *19:13 *47:10 0.000178766
*RES
1 *682:X *47:10 43.4582 
2 *47:10 s3 8.4816 
*END

*D_NET *48 0.000709843
*CONN
*P s4 O
*I *683:X O *D sky130_fd_sc_hd__buf_1
*CAP
1 s4 0.000326853
2 *683:X 0.000326853
3 s4 s5 0
4 s4 *139:8 1.5367e-05
5 s3 s4 8.14539e-06
6 *19:13 s4 3.26241e-05
*RES
1 *683:X s4 48.3188 
*END

*D_NET *49 0.000753888
*CONN
*P s5 O
*I *684:X O *D sky130_fd_sc_hd__buf_1
*CAP
1 s5 0.000114636
2 *684:X 0.000258235
3 *49:10 0.000372872
4 s5 s6 8.14539e-06
5 *49:10 *683:A 0
6 s4 s5 0
*RES
1 *684:X *49:10 42.0289 
2 *49:10 s5 8.4816 
*END

*D_NET *50 0.000486123
*CONN
*P s6 O
*I *685:X O *D sky130_fd_sc_hd__buf_1
*CAP
1 s6 0.000236194
2 *685:X 0.000236194
3 s6 s7 0
4 s6 *683:A 5.58873e-06
5 s5 s6 8.14539e-06
*RES
1 *685:X s6 47.0789 
*END

*D_NET *51 0.0011672
*CONN
*P s7 O
*I *686:X O *D sky130_fd_sc_hd__buf_1
*CAP
1 s7 0.000281149
2 *686:X 0.000187494
3 *51:8 0.000468643
4 s7 s8 0
5 s7 *52:16 0
6 *51:8 *164:10 0.000144155
7 *51:8 *165:10 8.57577e-05
8 *51:8 *200:14 0
9 s6 s7 0
*RES
1 *686:X *51:8 42.5468 
2 *51:8 s7 9.01547 
*END

*D_NET *52 0.000725002
*CONN
*P s8 O
*I *687:X O *D sky130_fd_sc_hd__buf_1
*CAP
1 s8 4.64007e-05
2 *687:X 0.000312028
3 *52:16 0.000358428
4 s8 s9 0
5 *52:16 s9 8.14539e-06
6 s7 s8 0
7 s7 *52:16 0
*RES
1 *687:X *52:16 49.9587 
2 *52:16 s8 0.199733 
*END

*D_NET *53 0.000801892
*CONN
*P s9 O
*I *688:X O *D sky130_fd_sc_hd__buf_1
*CAP
1 s9 0.000396874
2 *688:X 0.000396874
3 s9 *200:14 0
4 s10 s9 0
5 s8 s9 0
6 *52:16 s9 8.14539e-06
*RES
1 *688:X s9 49.0973 
*END

*D_NET *54 0.000369727
*CONN
*I *552:B1 I *D sky130_fd_sc_hd__a21o_1
*I *551:X O *D sky130_fd_sc_hd__o21ba_1
*CAP
1 *552:B1 0
2 *551:X 0.000154167
3 *54:10 0.000154167
4 *54:10 *153:12 5.56356e-05
5 *54:10 *184:10 5.75756e-06
6 s11 *54:10 0
*RES
1 *551:X *54:10 40.5271 
2 *54:10 *552:B1 38 
*END

*D_NET *55 0.000504689
*CONN
*I *555:A1 I *D sky130_fd_sc_hd__a21oi_1
*I *553:Y O *D sky130_fd_sc_hd__nand2_1
*CAP
1 *555:A1 0.000168808
2 *553:Y 0.000168808
3 *555:A1 *553:A 6.68919e-05
4 *555:A1 *81:10 0.00010018
*RES
1 *553:Y *555:A1 48.5271 
*END

*D_NET *56 0.00162258
*CONN
*I *555:A2 I *D sky130_fd_sc_hd__a21oi_1
*I *556:B1_N I *D sky130_fd_sc_hd__o21ba_1
*I *554:X O *D sky130_fd_sc_hd__or2_1
*CAP
1 *555:A2 0.000116746
2 *556:B1_N 0
3 *554:X 0
4 *56:12 0.000225395
5 *56:4 0.000342141
6 *555:A2 *514:B 5.79559e-05
7 *555:A2 *554:B 8.9012e-05
8 *555:A2 *81:10 0.000249548
9 *555:A2 *83:22 2.43944e-05
10 *555:A2 *151:8 6.57815e-06
11 *56:12 *514:B 5.79559e-05
12 *56:12 *674:A 1.08928e-05
13 *56:12 *81:10 0.000101226
14 *56:12 *130:24 0.000192012
15 *56:12 *151:8 7.53303e-06
16 *56:12 *200:14 9.79925e-05
17 *56:12 *200:29 4.3198e-05
18 *56:12 *205:14 0
*RES
1 *554:X *56:4 23 
2 *56:4 *56:12 34.785 
3 *56:12 *556:B1_N 23 
4 *56:4 *555:A2 26.6457 
*END

*D_NET *57 0.000895742
*CONN
*I *557:B1 I *D sky130_fd_sc_hd__a21o_1
*I *556:X O *D sky130_fd_sc_hd__o21ba_1
*CAP
1 *557:B1 9.87467e-05
2 *556:X 0.000198176
3 *57:10 0.000296922
4 *557:B1 *207:8 5.40337e-05
5 *57:10 *674:A 7.59582e-05
6 *57:10 *130:24 0
7 *57:10 *205:14 0.000171906
*RES
1 *556:X *57:10 41.8321 
2 *57:10 *557:B1 40.0507 
*END

*D_NET *58 0.000559008
*CONN
*I *559:B1 I *D sky130_fd_sc_hd__a21o_1
*I *558:X O *D sky130_fd_sc_hd__o21ba_1
*CAP
1 *559:B1 9.53816e-05
2 *558:X 9.53816e-05
3 *559:B1 *559:A1 0.000142678
4 *559:B1 *208:10 5.52998e-05
5 *559:B1 *212:8 6.979e-05
6 *559:B1 *221:26 0.000100477
*RES
1 *558:X *559:B1 49.0243 
*END

*D_NET *59 0.00241448
*CONN
*I *562:A3 I *D sky130_fd_sc_hd__a31o_1
*I *564:A1 I *D sky130_fd_sc_hd__a21bo_1
*I *561:Y O *D sky130_fd_sc_hd__nand2_1
*CAP
1 *562:A3 0.000101809
2 *564:A1 0
3 *561:Y 0.000479509
4 *59:12 0.000101809
5 *59:10 0.000479509
6 *562:A3 *562:B1 2.02872e-05
7 *562:A3 *564:A2 0.000264559
8 *562:A3 *92:25 4.6595e-05
9 *562:A3 *210:8 0.000221084
10 *59:10 *88:10 0.000138718
11 *59:10 *97:8 0.000308253
12 *59:10 *177:10 0.000136486
13 *59:10 *211:18 0.000115859
*RES
1 *561:Y *59:10 45.7679 
2 *59:10 *59:12 15 
3 *59:12 *564:A1 23 
4 *59:12 *562:A3 26.48 
*END

*D_NET *60 0.00169569
*CONN
*I *564:A2 I *D sky130_fd_sc_hd__a21bo_1
*I *563:Y O *D sky130_fd_sc_hd__a21oi_1
*CAP
1 *564:A2 0.000117003
2 *563:Y 0.000206036
3 *60:10 0.00032304
4 *564:A2 *562:B1 5.3304e-05
5 *564:A2 *564:B1_N 2.02872e-05
6 *564:A2 *632:A 0.000137651
7 *564:A2 *92:25 2.18409e-05
8 *564:A2 *210:8 2.18506e-05
9 *60:10 *562:B1 0.000101232
10 *60:10 *563:A1 0.000160182
11 *60:10 *563:A2 1.24376e-05
12 *60:10 *89:10 2.3529e-05
13 *60:10 *90:27 1.14452e-05
14 *60:10 *90:40 3.82956e-05
15 *60:10 *92:25 7.75329e-06
16 *60:10 *100:6 5.37348e-06
17 *60:10 *175:27 2.88149e-05
18 *60:10 *176:39 0.000141052
19 *562:A3 *564:A2 0.000264559
*RES
1 *563:Y *60:10 42.8886 
2 *60:10 *564:A2 41.48 
*END

*D_NET *61 0.00264315
*CONN
*I *567:A1 I *D sky130_fd_sc_hd__a21boi_1
*I *566:A2 I *D sky130_fd_sc_hd__a21oi_1
*I *565:Y O *D sky130_fd_sc_hd__nor2_1
*CAP
1 *567:A1 0.000188595
2 *566:A2 0.000167557
3 *565:Y 0.000318924
4 *61:8 0.000675076
5 *566:A2 *99:10 0.000220285
6 *566:A2 *117:12 8.39478e-05
7 *566:A2 *212:8 0.000182219
8 *567:A1 *567:A2 1.14452e-05
9 *567:A1 *99:10 6.43792e-05
10 *567:A1 *117:12 0.000135775
11 *567:A1 *117:48 1.05658e-05
12 *567:A1 *177:10 0
13 *567:A1 *179:20 0.000185503
14 *567:A1 *182:34 6.70363e-05
15 *61:8 *565:A 8.53902e-05
16 *61:8 *99:14 0.000190655
17 *61:8 *99:18 5.58003e-05
*RES
1 *565:Y *61:8 43.8621 
2 *61:8 *566:A2 42.6607 
3 *61:8 *567:A1 44.4836 
*END

*D_NET *62 0.00164468
*CONN
*I *569:A I *D sky130_fd_sc_hd__nand2_1
*I *568:X O *D sky130_fd_sc_hd__or3_1
*CAP
1 *569:A 0
2 *568:X 0.00062491
3 *62:10 0.00062491
4 *62:10 *537:B 0
5 *62:10 *538:B 0
6 *62:10 *565:A 5.86423e-05
7 *62:10 *69:34 1.16814e-05
8 *62:10 *99:14 5.45541e-05
9 *62:10 *99:18 1.21972e-05
10 *62:10 *103:14 5.58975e-06
11 *62:10 *186:18 0.000139735
12 *36:21 *62:10 0.000112455
*RES
1 *568:X *62:10 47.5079 
2 *62:10 *569:A 38 
*END

*D_NET *63 0.00193461
*CONN
*I *571:A2 I *D sky130_fd_sc_hd__a21oi_1
*I *570:A2 I *D sky130_fd_sc_hd__o21ai_1
*I *569:Y O *D sky130_fd_sc_hd__nand2_1
*CAP
1 *571:A2 2.13751e-05
2 *570:A2 0
3 *569:Y 8.69539e-05
4 *63:16 0.000359987
5 *63:6 0.000468316
6 *571:A2 *103:22 5.47983e-06
7 *63:6 *69:34 0.000150422
8 *63:6 *73:20 4.96207e-05
9 *63:6 *103:22 5.25022e-05
10 *63:16 *537:B 2.64616e-05
11 *63:16 *567:B1_N 5.50106e-05
12 *63:16 *102:8 0
13 *63:16 *103:22 0.000110152
14 *63:16 *179:20 0.000124808
15 *63:16 *182:34 0.000189539
16 *63:16 *182:53 9.65021e-05
17 *63:16 *215:10 0.000137481
*RES
1 *569:Y *63:6 25.5271 
2 *63:6 *63:16 37.7679 
3 *63:16 *570:A2 23 
4 *63:6 *571:A2 23.4971 
*END

*D_NET *64 0.000758447
*CONN
*I *575:A1 I *D sky130_fd_sc_hd__o21ai_1
*I *573:A2 I *D sky130_fd_sc_hd__a21oi_1
*I *572:Y O *D sky130_fd_sc_hd__nand2_1
*CAP
1 *575:A1 0
2 *573:A2 0.000104714
3 *572:Y 0
4 *64:23 0.000158528
5 *64:4 0.000263241
6 *573:A2 *543:A1 6.17437e-06
7 *573:A2 *572:B 4.08219e-05
8 *573:A2 *573:B1 1.79959e-05
9 *64:23 *155:14 1.98991e-05
10 *64:23 *217:10 9.79925e-05
11 *64:23 *218:8 3.7122e-06
12 *64:23 *218:18 4.53683e-05
*RES
1 *572:Y *64:4 23 
2 *64:4 *573:A2 25.4443 
3 *64:4 *64:23 33.3557 
4 *64:23 *575:A1 23 
*END

*D_NET *65 0.00233975
*CONN
*I *575:B1 I *D sky130_fd_sc_hd__o21ai_1
*I *574:Y O *D sky130_fd_sc_hd__nand2_1
*CAP
1 *575:B1 0.000337419
2 *574:Y 0.000463994
3 *65:18 0.000801413
4 *575:B1 *575:A2 0.00022823
5 *575:B1 *576:A1_N 2.13216e-05